data/pglib_opf_case1803_snem_storage.m
%%%%%%%%%%%%%%%%%%%%%%%%%%%%%%%%%%%%%%%%%%%%%%%%%%%%%%%%%%%%%%%%%%%%%%%%%%%
%%%%                                                                  %%%%%
%%%%    IEEE PES Power Grid Library - Optimal Power Flow - v23.07     %%%%%
%%%%          (https://github.com/power-grid-lib/pglib-opf)           %%%%%
%%%%               Benchmark Group - Typical Operations               %%%%%
%%%%                         23 - July - 2023                         %%%%%
%%%%                                                                  %%%%%
%%%%%%%%%%%%%%%%%%%%%%%%%%%%%%%%%%%%%%%%%%%%%%%%%%%%%%%%%%%%%%%%%%%%%%%%%%%
%
%   Optimal Power Flow data for the Synthetic National Electricity Market (SNEM)
%   Australia - Mainland subnetwork.
%
%   This dataset is derived by complementing and extending the S-NEM2300bus
%   benchmark data and software as part the following works:
%      - F. Arraño-Vargas and G. Konstantinou, "Modular Design and Real-Time
%        Simulators Toward Power System Digital Twins Implementation," in IEEE
%        Transactions on Industrial Informatics, doi: 10.1109/TII.2022.3178713
%      - F. Arraño-Vargas and G. Konstantinou, "Synthetic Grid Modeling for
%        Real-Time Simulations," 2021 IEEE PES Innovative Smart Grid
%        Technologies - Asia (ISGT Asia), 2021,
%        doi: 10.1109/ISGTAsia49270.2021.9715654
%
%   A technical report about this dataset is available at:
%   https://arxiv.org/abs/2306.08176
%
%   Copyright (c) 2023 by Rahmat Heidari (rahmat.heidarihaei@csiro.au)
%   Licensed under the Creative Commons Attribution 4.0
%   International license, http://creativecommons.org/licenses/by/4.0/
%
% Modified to have additional storage capacity and increased gencost
function mpc = pglib_opf_case1803_snem
mpc.version = '2';
mpc.baseMVA = 100.0;

%% bus data
%	bus_i	type	Pd	Qd	Gs	Bs	area	Vm	Va	baseKV	zone	Vmax	Vmin
mpc.bus = [
	1	 1	 0.0	 0.0	 0.0	 0.0	 1	    1.00000	    0.00000	 0.55	 1	    1.10000	    0.90000;
	2	 1	 0.0	 0.0	 0.0	 0.0	 1	    1.00000	    0.00000	 0.55	 1	    1.10000	    0.90000;
	3	 3	 27.2143410097	 22.9900319056	 0.0	 0.0	 1	    1.00000	    0.00000	 23.0	 1	    1.10000	    0.90000;
	4	 2	 35.3055390657	 25.5369557543	 0.0	 0.0	 1	    1.00000	    0.00000	 23.0	 1	    1.10000	    0.90000;
	5	 2	 36.3464705546	 25.4527938493	 0.0	 0.0	 1	    1.00000	    0.00000	 23.0	 1	    1.10000	    0.90000;
	6	 2	 36.1536967607	 25.9520197765	 0.0	 0.0	 1	    1.00000	    0.00000	 23.0	 1	    1.10000	    0.90000;
	7	 1	 0.0	 0.0	 0.0	 0.0	 1	    1.00000	    0.00000	 11.0	 1	    1.10000	    0.90000;
	8	 1	 34.3079817598	 6.89272724684	 0.0	 28.2324585212	 1	    1.00000	    0.00000	 22.0	 1	    1.10000	    0.90000;
	10	 1	 0.0	 0.0	 0.0	 0.0	 1	    1.00000	    0.00000	 11.0	 1	    1.10000	    0.90000;
	11	 1	 0.0	 0.0	 0.0	 0.0	 1	    1.00000	    0.00000	 11.0	 1	    1.10000	    0.90000;
	12	 2	 0.0	 0.0	 0.0	 0.0	 1	    1.00000	    0.00000	 330.0	 1	    1.10000	    0.90000;
	13	 2	 0.0	 0.0	 0.0	 0.0	 1	    1.00000	    0.00000	 0.69	 1	    1.10000	    0.90000;
	14	 2	 0.0	 0.0	 0.0	 0.0	 1	    1.00000	    0.00000	 0.69	 1	    1.10000	    0.90000;
	15	 2	 0.0	 0.0	 0.0	 0.0	 1	    1.00000	    0.00000	 0.69	 1	    1.10000	    0.90000;
	16	 1	 0.567323553624	 0.0	 0.0	 -2.25647719306	 1	    1.00000	    0.00000	 0.69	 1	    1.10000	    0.90000;
	17	 1	 -0.236101171253	 0.0	 0.0	 -3.91829091666	 1	    1.00000	    0.00000	 0.69	 1	    1.10000	    0.90000;
	18	 2	 32.9123161611	 24.7117839583	 0.0	 0.0	 1	    1.00000	    0.00000	 23.0	 1	    1.10000	    0.90000;
	19	 2	 32.7047949976	 24.8641462773	 0.0	 0.0	 1	    1.00000	    0.00000	 23.0	 1	    1.10000	    0.90000;
	20	 2	 32.9377227685	 24.8430852986	 0.0	 0.0	 1	    1.00000	    0.00000	 23.0	 1	    1.10000	    0.90000;
	21	 2	 33.7906400303	 25.0104665893	 0.0	 0.0	 1	    1.00000	    0.00000	 23.0	 1	    1.10000	    0.90000;
	22	 1	 -83.0623847518	 0.0	 0.0	 -11.7381837877	 1	    1.00000	    0.00000	 33.0	 1	    1.10000	    0.90000;
	23	 2	 0.0417559117749	 0.0395732937567	 0.0	 0.0	 1	    1.00000	    0.00000	 16.0	 1	    1.10000	    0.90000;
	24	 2	 0.0	 0.0	 0.0	 0.0	 1	    1.00000	    0.00000	 0.69	 1	    1.10000	    0.90000;
	25	 2	 0.0	 0.0	 0.0	 0.0	 1	    1.00000	    0.00000	 0.69	 1	    1.10000	    0.90000;
	26	 2	 0.0	 -14.6816765622	 0.0	 0.0	 1	    1.00000	    0.00000	 0.69	 1	    1.10000	    0.90000;
	27	 1	 0.0	 0.0	 0.0	 0.0	 1	    1.00000	    0.00000	 132.0	 1	    1.10000	    0.90000;
	28	 2	 0.0	 0.0	 0.0	 0.0	 1	    1.00000	    0.00000	 132.0	 1	    1.10000	    0.90000;
	29	 1	 0.0	 0.0	 0.0	 0.0	 1	    1.00000	    0.00000	 16.0	 1	    1.10000	    0.90000;
	30	 2	 0.0787415696122	 0.0773942161463	 0.0	 0.0	 1	    1.00000	    0.00000	 16.0	 1	    1.10000	    0.90000;
	31	 2	 0.0	 0.0	 0.0	 0.0	 1	    1.00000	    0.00000	 11.0	 1	    1.10000	    0.90000;
	32	 1	 176.733903015	 -4.11325372575	 0.0	 0.0	 1	    1.00000	    0.00000	 33.0	 1	    1.10000	    0.90000;
	33	 1	 -3.33792712396	 0.0	 0.0	 13.0353994753	 1	    1.00000	    0.00000	 11.0	 1	    1.10000	    0.90000;
	34	 2	 18.3415544694	 10.3636909979	 0.0	 0.0	 1	    1.00000	    0.00000	 22.0	 1	    1.10000	    0.90000;
	35	 2	 17.4121562783	 10.8938102149	 0.0	 0.0	 1	    1.00000	    0.00000	 22.0	 1	    1.10000	    0.90000;
	36	 2	 18.5822455404	 10.5566776533	 0.0	 0.0	 1	    1.00000	    0.00000	 22.0	 1	    1.10000	    0.90000;
	37	 2	 0.0943259037152	 0.0874372693778	 0.0	 0.0	 1	    1.00000	    0.00000	 15.4	 1	    1.10000	    0.90000;
	38	 2	 0.0876203157609	 0.0907639987733	 0.0	 0.0	 1	    1.00000	    0.00000	 15.4	 1	    1.10000	    0.90000;
	39	 2	 0.0911105032665	 0.0927051996761	 0.0	 0.0	 1	    1.00000	    0.00000	 15.4	 1	    1.10000	    0.90000;
	40	 2	 0.089493771646	 0.0930797259163	 0.0	 0.0	 1	    1.00000	    0.00000	 15.4	 1	    1.10000	    0.90000;
	41	 2	 0.0919159747737	 0.0946137851933	 0.0	 0.0	 1	    1.00000	    0.00000	 15.4	 1	    1.10000	    0.90000;
	42	 2	 0.0944379383104	 0.0882814010352	 0.0	 0.0	 1	    1.00000	    0.00000	 15.4	 1	    1.10000	    0.90000;
	43	 2	 31.5180404374	 25.9728703916	 0.0	 0.0	 1	    1.00000	    0.00000	 23.0	 1	    1.10000	    0.90000;
	44	 1	 0.0	 0.0	 0.0	 0.0	 1	    1.00000	    0.00000	 23.0	 1	    1.10000	    0.90000;
	45	 1	 0.0	 0.0	 0.0	 0.0	 1	    1.00000	    0.00000	 17.5	 1	    1.10000	    0.90000;
	46	 1	 -6.32180725649	 0.0	 0.0	 0.0624221457001	 1	    1.00000	    0.00000	 22.0	 1	    1.10000	    0.90000;
	47	 1	 1.02072695429	 0.733871934418	 0.0	 0.0	 1	    1.00000	    0.00000	 15.0	 1	    1.10000	    0.90000;
	48	 1	 1.12003359275	 0.730782591217	 0.0	 0.0	 1	    1.00000	    0.00000	 15.0	 1	    1.10000	    0.90000;
	49	 1	 0.968675146375	 0.592623299681	 0.0	 0.0	 1	    1.00000	    0.00000	 15.0	 1	    1.10000	    0.90000;
	50	 1	 0.939745739394	 0.586038304737	 0.0	 0.0	 1	    1.00000	    0.00000	 15.0	 1	    1.10000	    0.90000;
	51	 1	 -3.06059989218	 0.0	 0.0	 0.0	 1	    1.00000	    0.00000	 0.55	 1	    1.10000	    0.90000;
	52	 1	 -20.5648680557	 0.0	 0.0	 -3.9105969881	 1	    1.00000	    0.00000	 22.0	 1	    1.10000	    0.90000;
	53	 1	 -20.3553881523	 0.0	 0.0	 -3.68069020144	 1	    1.00000	    0.00000	 22.0	 1	    1.10000	    0.90000;
	54	 1	 37.3257623167	 4.58530336712	 0.0	 -4.59536475486	 1	    1.00000	    0.00000	 11.0	 1	    1.10000	    0.90000;
	55	 1	 0.0	 0.0	 0.0	 0.0	 1	    1.00000	    0.00000	 0.55	 1	    1.10000	    0.90000;
	56	 2	 7.19655427563	 2.41647754932	 0.0	 0.0	 1	    1.00000	    0.00000	 21.0	 1	    1.10000	    0.90000;
	57	 2	 0.0	 0.0	 0.0	 0.0	 1	    1.00000	    0.00000	 11.5	 1	    1.10000	    0.90000;
	58	 2	 0.0	 0.0	 0.0	 0.0	 1	    1.00000	    0.00000	 11.5	 1	    1.10000	    0.90000;
	59	 1	 0.0	 0.0	 0.0	 0.0	 1	    1.00000	    0.00000	 132.0	 1	    1.10000	    0.90000;
	60	 1	 -14.2822452541	 0.0	 0.0	 -4.09664424893	 1	    1.00000	    0.00000	 12.0	 1	    1.10000	    0.90000;
	61	 2	 0.0	 0.0	 0.0	 401.966151409	 1	    1.00000	    0.00000	 330.0	 1	    1.10000	    0.90000;
	62	 2	 0.0	 0.0	 0.0	 0.0	 1	    1.00000	    0.00000	 11.0	 1	    1.10000	    0.90000;
	63	 2	 0.0	 0.0	 0.0	 0.0	 1	    1.00000	    0.00000	 11.0	 1	    1.10000	    0.90000;
	64	 2	 0.0	 0.0	 0.0	 0.0	 1	    1.00000	    0.00000	 15.75	 1	    1.10000	    0.90000;
	65	 2	 0.0	 0.0	 0.0	 0.0	 1	    1.00000	    0.00000	 15.75	 1	    1.10000	    0.90000;
	66	 2	 0.0	 0.0	 0.0	 0.0	 1	    1.00000	    0.00000	 15.75	 1	    1.10000	    0.90000;
	67	 2	 0.0	 0.0	 0.0	 0.0	 1	    1.00000	    0.00000	 15.75	 1	    1.10000	    0.90000;
	68	 1	 0.0	 0.0	 0.0	 0.0	 1	    1.00000	    0.00000	 12.5	 1	    1.10000	    0.90000;
	69	 2	 0.0433923930489	 0.0437495418987	 0.0	 0.0	 1	    1.00000	    0.00000	 12.5	 1	    1.10000	    0.90000;
	70	 2	 0.0448706568134	 0.0477275057821	 0.0	 0.0	 1	    1.00000	    0.00000	 12.5	 1	    1.10000	    0.90000;
	71	 1	 0.0	 0.0	 0.0	 0.0	 1	    1.00000	    0.00000	 12.5	 1	    1.10000	    0.90000;
	72	 1	 0.0	 0.0	 0.0	 0.0	 1	    1.00000	    0.00000	 12.5	 1	    1.10000	    0.90000;
	73	 2	 0.0380112225227	 0.0406420744564	 0.0	 0.0	 1	    1.00000	    0.00000	 12.5	 1	    1.10000	    0.90000;
	74	 2	 0.0387934326939	 0.038430588806	 0.0	 0.0	 1	    1.00000	    0.00000	 12.5	 1	    1.10000	    0.90000;
	75	 2	 0.0380778377876	 0.0389150532997	 0.0	 0.0	 1	    1.00000	    0.00000	 12.5	 1	    1.10000	    0.90000;
	76	 2	 26.309900101	 14.9509423831	 0.0	 0.0	 1	    1.00000	    0.00000	 23.0	 1	    1.10000	    0.90000;
	77	 2	 27.9590391678	 14.582292852	 0.0	 0.0	 1	    1.00000	    0.00000	 23.0	 1	    1.10000	    0.90000;
	78	 1	 17.9440035212	 9.01682277888	 0.0	 -4.99407642437	 1	    1.00000	    0.00000	 66.0	 1	    1.10000	    0.90000;
	79	 2	 0.0	 0.0	 0.0	 0.0	 1	    1.00000	    0.00000	 11.0	 1	    1.10000	    0.90000;
	80	 2	 0.0	 0.0	 0.0	 0.0	 1	    1.00000	    0.00000	 11.0	 1	    1.10000	    0.90000;
	81	 1	 0.0	 0.0	 0.0	 0.0	 1	    1.00000	    0.00000	 11.0	 1	    1.10000	    0.90000;
	82	 1	 0.0	 0.0	 0.0	 0.0	 1	    1.00000	    0.00000	 11.0	 1	    1.10000	    0.90000;
	83	 1	 0.0	 0.0	 0.0	 0.0	 1	    1.00000	    0.00000	 11.5	 1	    1.10000	    0.90000;
	84	 1	 0.0	 0.0	 0.0	 0.0	 1	    1.00000	    0.00000	 11.5	 1	    1.10000	    0.90000;
	85	 1	 0.0	 0.0	 0.0	 0.0	 1	    1.00000	    0.00000	 500.0	 1	    1.10000	    0.90000;
	86	 1	 0.0	 0.0	 0.0	 0.0	 1	    1.00000	    0.00000	 330.0	 1	    1.10000	    0.90000;
	87	 1	 0.0	 0.0	 0.0	 0.0	 1	    1.00000	    0.00000	 500.0	 1	    1.10000	    0.90000;
	88	 1	 0.0	 0.0	 0.0	 412.028655894	 1	    1.00000	    0.00000	 330.0	 1	    1.10000	    0.90000;
	91	 1	 0.0	 0.0	 0.0	 0.0	 1	    1.00000	    0.00000	 330.0	 1	    1.10000	    0.90000;
	92	 1	 0.0	 0.0	 0.0	 0.0	 1	    1.00000	    0.00000	 500.0	 1	    1.10000	    0.90000;
	93	 1	 0.0	 0.0	 0.0	 0.0	 1	    1.00000	    0.00000	 330.0	 1	    1.10000	    0.90000;
	94	 1	 0.0	 0.0	 0.0	 0.0	 1	    1.00000	    0.00000	 500.0	 1	    1.10000	    0.90000;
	95	 1	 0.0	 0.0	 0.0	 0.0	 1	    1.00000	    0.00000	 330.0	 1	    1.10000	    0.90000;
	97	 1	 0.0	 0.0	 0.0	 0.0	 1	    1.00000	    0.00000	 330.0	 1	    1.10000	    0.90000;
	98	 1	 0.0	 0.0	 0.0	 0.0	 1	    1.00000	    0.00000	 330.0	 1	    1.10000	    0.90000;
	99	 1	 0.0	 0.0	 0.0	 0.0	 1	    1.00000	    0.00000	 330.0	 1	    1.10000	    0.90000;
	100	 1	 0.0	 0.0	 0.0	 0.0	 1	    1.00000	    0.00000	 330.0	 1	    1.10000	    0.90000;
	101	 1	 0.0	 0.0	 0.0	 0.0	 1	    1.00000	    0.00000	 330.0	 1	    1.10000	    0.90000;
	102	 1	 0.0	 0.0	 0.0	 -155.267267078	 1	    1.00000	    0.00000	 330.0	 1	    1.10000	    0.90000;
	103	 1	 0.104516655384	 -1.72427469985	 0.0	 0.0	 1	    1.00000	    0.00000	 132.0	 1	    1.10000	    0.90000;
	104	 1	 0.0	 0.0	 0.0	 -62.1507556932	 1	    1.00000	    0.00000	 330.0	 1	    1.10000	    0.90000;
	105	 1	 0.0	 0.0	 0.0	 0.0	 1	    1.00000	    0.00000	 330.0	 1	    1.10000	    0.90000;
	106	 1	 0.0	 0.0	 0.0	 0.0	 1	    1.00000	    0.00000	 330.0	 1	    1.10000	    0.90000;
	107	 1	 0.0	 0.0	 0.0	 0.0	 1	    1.00000	    0.00000	 330.0	 1	    1.10000	    0.90000;
	108	 1	 0.0	 0.0	 0.0	 0.0	 1	    1.00000	    0.00000	 330.0	 1	    1.10000	    0.90000;
	109	 1	 0.0	 0.0	 0.0	 0.0	 1	    1.00000	    0.00000	 330.0	 1	    1.10000	    0.90000;
	110	 1	 0.0	 0.0	 0.0	 0.0	 1	    1.00000	    0.00000	 330.0	 1	    1.10000	    0.90000;
	111	 1	 0.0	 0.0	 0.0	 -100.109446193	 1	    1.00000	    0.00000	 330.0	 1	    1.10000	    0.90000;
	112	 1	 0.0	 0.0	 0.0	 0.0	 1	    1.00000	    0.00000	 330.0	 1	    1.10000	    0.90000;
	113	 1	 0.0	 0.0	 0.0	 0.0	 1	    1.00000	    0.00000	 330.0	 1	    1.10000	    0.90000;
	114	 1	 0.0	 0.0	 0.0	 0.0	 1	    1.00000	    0.00000	 330.0	 1	    1.10000	    0.90000;
	115	 1	 0.0	 0.0	 0.0	 0.0	 1	    1.00000	    0.00000	 330.0	 1	    1.10000	    0.90000;
	116	 1	 0.0	 0.0	 0.0	 0.0	 1	    1.00000	    0.00000	 500.0	 1	    1.10000	    0.90000;
	117	 1	 0.0	 0.0	 0.0	 0.0	 1	    1.00000	    0.00000	 330.0	 1	    1.10000	    0.90000;
	118	 1	 0.0	 0.0	 0.0	 0.0	 1	    1.00000	    0.00000	 330.0	 1	    1.10000	    0.90000;
	119	 1	 0.0	 0.0	 0.0	 0.0	 1	    1.00000	    0.00000	 330.0	 1	    1.10000	    0.90000;
	120	 1	 0.0	 0.0	 0.0	 0.0	 1	    1.00000	    0.00000	 330.0	 1	    1.10000	    0.90000;
	121	 1	 52.1446072877	 -10.418699422	 0.0	 0.0	 1	    1.00000	    0.00000	 132.0	 1	    1.10000	    0.90000;
	122	 1	 47.0702037675	 -7.42322407302	 0.0	 0.0	 1	    1.00000	    0.00000	 132.0	 1	    1.10000	    0.90000;
	123	 1	 0.771102107275	 0.535070520377	 0.0	 0.0	 1	    1.00000	    0.00000	 132.0	 1	    1.10000	    0.90000;
	124	 1	 46.8132718256	 -6.03130423971	 0.0	 0.0	 1	    1.00000	    0.00000	 132.0	 1	    1.10000	    0.90000;
	126	 1	 0.0	 0.0	 0.0	 0.0	 1	    1.00000	    0.00000	 330.0	 1	    1.10000	    0.90000;
	127	 1	 0.0	 0.0	 0.0	 0.0	 1	    1.00000	    0.00000	 330.0	 1	    1.10000	    0.90000;
	128	 1	 0.0	 0.0	 0.0	 0.0	 1	    1.00000	    0.00000	 330.0	 1	    1.10000	    0.90000;
	129	 1	 0.0	 0.0	 0.0	 0.0	 1	    1.00000	    0.00000	 132.0	 1	    1.10000	    0.90000;
	130	 1	 0.0	 0.0	 0.0	 0.0	 1	    1.00000	    0.00000	 132.0	 1	    1.10000	    0.90000;
	131	 1	 0.0	 0.0	 0.0	 0.0	 1	    1.00000	    0.00000	 330.0	 1	    1.10000	    0.90000;
	132	 1	 14.2949130829	 5.14730489338	 0.0	 0.0	 1	    1.00000	    0.00000	 132.0	 1	    1.10000	    0.90000;
	133	 1	 0.0	 0.0	 0.0	 -246.926355765	 1	    1.00000	    0.00000	 330.0	 1	    1.10000	    0.90000;
	135	 1	 0.0	 0.0	 0.0	 0.0	 1	    1.00000	    0.00000	 330.0	 1	    1.10000	    0.90000;
	138	 1	 0.0	 0.0	 0.0	 0.0	 1	    1.00000	    0.00000	 330.0	 1	    1.10000	    0.90000;
	139	 1	 969.015003722	 274.396284277	 0.0	 221.551048583	 1	    1.00000	    0.00000	 330.0	 1	    1.10000	    0.90000;
	140	 1	 0.0	 0.0	 0.0	 0.0	 1	    1.00000	    0.00000	 330.0	 1	    1.10000	    0.90000;
	141	 1	 0.0	 0.0	 0.0	 0.0	 1	    1.00000	    0.00000	 330.0	 1	    1.10000	    0.90000;
	142	 2	 0.0	 0.0	 0.0	 192.15602316	 1	    1.00000	    0.00000	 330.0	 1	    1.10000	    0.90000;
	143	 1	 0.0	 0.0	 0.0	 0.0	 1	    1.00000	    0.00000	 330.0	 1	    1.10000	    0.90000;
	144	 1	 0.0	 0.0	 0.0	 0.0	 1	    1.00000	    0.00000	 330.0	 1	    1.10000	    0.90000;
	145	 1	 0.0	 0.0	 0.0	 0.0	 1	    1.00000	    0.00000	 330.0	 1	    1.10000	    0.90000;
	146	 1	 0.0	 0.0	 0.0	 0.0	 1	    1.00000	    0.00000	 330.0	 1	    1.10000	    0.90000;
	147	 1	 0.0	 0.0	 0.0	 0.0	 1	    1.00000	    0.00000	 330.0	 1	    1.10000	    0.90000;
	148	 1	 0.0	 0.0	 0.0	 -102.099124142	 1	    1.00000	    0.00000	 330.0	 1	    1.10000	    0.90000;
	149	 1	 0.0	 0.0	 0.0	 0.0	 1	    1.00000	    0.00000	 500.0	 1	    1.10000	    0.90000;
	150	 1	 0.0	 0.0	 0.0	 0.0	 1	    1.00000	    0.00000	 330.0	 1	    1.10000	    0.90000;
	151	 1	 0.0	 0.0	 0.0	 0.0	 1	    1.00000	    0.00000	 330.0	 1	    1.10000	    0.90000;
	152	 1	 0.0	 0.0	 0.0	 80.0795439854	 1	    1.00000	    0.00000	 132.0	 1	    1.10000	    0.90000;
	154	 1	 0.0	 0.0	 0.0	 -130.999934976	 1	    1.00000	    0.00000	 33.0	 1	    1.10000	    0.90000;
	155	 1	 0.0	 0.0	 0.0	 0.0	 1	    1.00000	    0.00000	 33.0	 1	    1.10000	    0.90000;
	156	 1	 0.216529954653	 0.40220958957	 0.0	 -98.8957157964	 1	    1.00000	    0.00000	 132.0	 1	    1.10000	    0.90000;
	157	 1	 0.0	 0.0	 0.0	 24.5882924404	 1	    1.00000	    0.00000	 132.0	 1	    1.10000	    0.90000;
	159	 1	 301.531118972	 25.0952941306	 0.0	 123.898189047	 1	    1.00000	    0.00000	 132.0	 1	    1.10000	    0.90000;
	160	 1	 0.0	 0.0	 0.0	 -34.6324332986	 1	    1.00000	    0.00000	 220.0	 1	    1.10000	    0.90000;
	161	 1	 17.9916232135	 -4.01532178472	 0.0	 38.4342529013	 1	    1.00000	    0.00000	 132.0	 1	    1.10000	    0.90000;
	162	 1	 282.123194454	 107.245840739	 0.0	 -103.907705913	 1	    1.00000	    0.00000	 132.0	 1	    1.10000	    0.90000;
	165	 1	 0.0	 0.0	 0.0	 0.0	 1	    1.00000	    0.00000	 132.0	 1	    1.10000	    0.90000;
	166	 2	 0.0	 0.0	 0.0	 30.8154675476	 1	    1.00000	    0.00000	 132.0	 1	    1.10000	    0.90000;
	170	 1	 0.0	 0.0	 0.0	 0.0	 1	    1.00000	    0.00000	 132.0	 1	    1.10000	    0.90000;
	171	 1	 139.756027023	 20.4495047483	 0.0	 0.0	 1	    1.00000	    0.00000	 132.0	 1	    1.10000	    0.90000;
	172	 1	 0.0	 0.0	 0.0	 0.0	 1	    1.00000	    0.00000	 132.0	 1	    1.10000	    0.90000;
	174	 2	 0.0	 0.0	 0.0	 0.0	 1	    1.00000	    0.00000	 33.0	 1	    1.10000	    0.90000;
	175	 1	 0.0	 0.0	 0.0	 0.0	 1	    1.00000	    0.00000	 132.0	 1	    1.10000	    0.90000;
	176	 1	 0.0	 0.0	 0.0	 0.0	 1	    1.00000	    0.00000	 132.0	 1	    1.10000	    0.90000;
	177	 1	 245.266632081	 85.0262496159	 0.0	 82.4597979225	 1	    1.00000	    0.00000	 132.0	 1	    1.10000	    0.90000;
	178	 1	 632.518389134	 -25.5202391199	 0.0	 110.238720744	 1	    1.00000	    0.00000	 132.0	 1	    1.10000	    0.90000;
	179	 1	 215.919671695	 81.5537537811	 0.0	 123.996004455	 1	    1.00000	    0.00000	 132.0	 1	    1.10000	    0.90000;
	180	 1	 0.0	 0.0	 0.0	 0.0	 1	    1.00000	    0.00000	 132.0	 1	    1.10000	    0.90000;
	181	 1	 0.0	 0.0	 0.0	 0.0	 1	    1.00000	    0.00000	 132.0	 1	    1.10000	    0.90000;
	182	 1	 78.4661207231	 3.50308306386	 0.0	 118.623397015	 1	    1.00000	    0.00000	 132.0	 1	    1.10000	    0.90000;
	183	 1	 66.0519762228	 13.3407049598	 0.0	 167.431074902	 1	    1.00000	    0.00000	 132.0	 1	    1.10000	    0.90000;
	184	 1	 24.1092058153	 6.27467704216	 0.0	 160.632906526	 1	    1.00000	    0.00000	 132.0	 1	    1.10000	    0.90000;
	185	 1	 103.77583089	 19.8401998823	 0.0	 0.0	 1	    1.00000	    0.00000	 132.0	 1	    1.10000	    0.90000;
	186	 1	 0.0	 0.0	 0.0	 0.0	 1	    1.00000	    0.00000	 132.0	 1	    1.10000	    0.90000;
	188	 1	 41.1847667449	 17.5264675299	 0.0	 0.0	 1	    1.00000	    0.00000	 132.0	 1	    1.10000	    0.90000;
	189	 1	 8.19631901153	 -0.717465096623	 0.0	 0.0	 1	    1.00000	    0.00000	 132.0	 1	    1.10000	    0.90000;
	191	 1	 158.330567612	 30.7631402486	 0.0	 59.594300447	 1	    1.00000	    0.00000	 132.0	 1	    1.10000	    0.90000;
	192	 1	 0.0	 0.0	 0.0	 78.9705364779	 1	    1.00000	    0.00000	 132.0	 1	    1.10000	    0.90000;
	193	 1	 18.2558459242	 8.83805388663	 0.0	 0.0	 1	    1.00000	    0.00000	 132.0	 1	    1.10000	    0.90000;
	194	 1	 80.4302328705	 30.8240931084	 0.0	 0.0	 1	    1.00000	    0.00000	 132.0	 1	    1.10000	    0.90000;
	195	 1	 0.0	 0.0	 0.0	 0.0	 1	    1.00000	    0.00000	 132.0	 1	    1.10000	    0.90000;
	196	 1	 68.9490856593	 30.1886233051	 0.0	 0.0	 1	    1.00000	    0.00000	 132.0	 1	    1.10000	    0.90000;
	197	 1	 0.0	 0.0	 0.0	 0.0	 1	    1.00000	    0.00000	 132.0	 1	    1.10000	    0.90000;
	198	 1	 0.0	 0.0	 0.0	 19.3074304163	 1	    1.00000	    0.00000	 132.0	 1	    1.10000	    0.90000;
	199	 1	 0.0	 0.0	 0.0	 0.0	 1	    1.00000	    0.00000	 132.0	 1	    1.10000	    0.90000;
	200	 1	 0.0	 0.0	 0.0	 0.0	 1	    1.00000	    0.00000	 132.0	 1	    1.10000	    0.90000;
	201	 1	 0.0	 0.0	 0.0	 0.0	 1	    1.00000	    0.00000	 132.0	 1	    1.10000	    0.90000;
	202	 1	 34.1927927518	 2.2713786386	 0.0	 6.20785610592	 1	    1.00000	    0.00000	 66.0	 1	    1.10000	    0.90000;
	204	 1	 0.0	 0.0	 0.0	 0.0	 1	    1.00000	    0.00000	 220.0	 1	    1.10000	    0.90000;
	205	 1	 0.0	 0.0	 0.0	 0.0	 1	    1.00000	    0.00000	 132.0	 1	    1.10000	    0.90000;
	208	 1	 27.6265726335	 14.479561446	 0.0	 0.0	 1	    1.00000	    0.00000	 132.0	 1	    1.10000	    0.90000;
	210	 1	 17.0287468017	 1.38877713294	 0.0	 -25.30242468	 1	    1.00000	    0.00000	 220.0	 1	    1.10000	    0.90000;
	211	 2	 85.8045954266	 0.0	 0.0	 0.0	 1	    1.00000	    0.00000	 110.0	 1	    1.10000	    0.90000;
	212	 1	 63.4955305943	 16.1682013051	 0.0	 0.0	 1	    1.00000	    0.00000	 132.0	 1	    1.10000	    0.90000;
	214	 1	 0.0	 0.0	 0.0	 154.116116226	 1	    1.00000	    0.00000	 132.0	 1	    1.10000	    0.90000;
	215	 1	 0.0	 0.0	 0.0	 -54.2264498049	 1	    1.00000	    0.00000	 220.0	 1	    1.10000	    0.90000;
	216	 1	 12.1669812025	 4.18680869392	 0.0	 0.0	 1	    1.00000	    0.00000	 132.0	 1	    1.10000	    0.90000;
	217	 1	 7.5037941805	 1.24192596954	 0.0	 0.0	 1	    1.00000	    0.00000	 132.0	 1	    1.10000	    0.90000;
	218	 1	 0.0	 0.0	 0.0	 0.0	 1	    1.00000	    0.00000	 132.0	 1	    1.10000	    0.90000;
	219	 1	 2.1835738987	 0.0288148468927	 0.0	 0.0	 1	    1.00000	    0.00000	 132.0	 1	    1.10000	    0.90000;
	221	 1	 82.0316256063	 22.3650536682	 0.0	 12.3653618859	 1	    1.00000	    0.00000	 132.0	 1	    1.10000	    0.90000;
	222	 1	 6.32726834923	 3.25207837966	 0.0	 0.0	 1	    1.00000	    0.00000	 132.0	 1	    1.10000	    0.90000;
	223	 1	 15.106573789	 6.24474930166	 0.0	 0.0	 1	    1.00000	    0.00000	 132.0	 1	    1.10000	    0.90000;
	225	 1	 19.6727942934	 5.26736583049	 0.0	 0.0	 1	    1.00000	    0.00000	 132.0	 1	    1.10000	    0.90000;
...
];

%% generator data
%	bus	Pg	Qg	Qmax	Qmin	Vg	mBase	status	Pmax	Pmin
mpc.gen = [
	3	 425.0	 65.0	 370.0	 -240.0	 1.0	 848.605419222	 1	 850.0	 0.0;
	4	 460.0	 130.0	 450.0	 -190.0	 1.0	 911.269176985	 1	 920.0	 0.0;
	5	 460.0	 65.0	 390.0	 -260.0	 1.0	 914.521020425	 1	 920.0	 0.0;
	6	 460.0	 130.0	 450.0	 -190.0	 1.0	 915.047054039	 1	 920.0	 0.0;
	13	 25.0	 0.0	 10.0	 -10.0	 1.0	 41.1012975616	 1	 50.0	 0.0;
	14	 25.0	 0.0	 10.0	 -10.0	 1.0	 45.4628463134	 1	 50.0	 0.0;
	15	 15.0	 0.0	 10.0	 -10.0	 1.0	 28.4771000574	 1	 30.0	 0.0;
	18	 430.0	 80.0	 440.0	 -280.0	 1.0	 853.151746194	 1	 860.0	 0.0;
	19	 415.0	 75.0	 430.0	 -280.0	 1.0	 828.587737327	 1	 830.0	 0.0;
	20	 415.0	 80.0	 430.0	 -270.0	 1.0	 824.955784731	 1	 830.0	 0.0;
	21	 410.0	 75.0	 430.0	 -280.0	 1.0	 815.543500367	 1	 820.0	 0.0;
	23	 55.0	 10.0	 50.0	 -30.0	 1.0	 100.1029132	 1	 110.0	 0.0;
	30	 50.0	 10.0	 50.0	 -30.0	 1.0	 99.532006905	 1	 100.0	 0.0;
	31	 50.0	 0.0	 30.0	 -30.0	 1.0	 90.588925583	 1	 100.0	 0.0;
	34	 325.0	 50.0	 210.0	 -110.0	 1.0	 643.693602205	 1	 650.0	 0.0;
	35	 325.0	 50.0	 220.0	 -120.0	 1.0	 645.286667252	 1	 650.0	 0.0;
	36	 315.0	 55.0	 210.0	 -100.0	 1.0	 628.984984948	 1	 630.0	 0.0;
	37	 175.0	 0.0	 90.0	 -90.0	 1.0	 343.07336415	 1	 350.0	 0.0;
	38	 170.0	 0.0	 90.0	 -90.0	 1.0	 338.426626158	 1	 340.0	 0.0;
	39	 175.0	 0.0	 90.0	 -90.0	 1.0	 341.423653126	 1	 350.0	 0.0;
	40	 170.0	 0.0	 90.0	 -90.0	 1.0	 336.309318445	 1	 340.0	 0.0;
	41	 170.0	 0.0	 90.0	 -90.0	 1.0	 333.510404178	 1	 340.0	 0.0;
	42	 175.0	 0.0	 90.0	 -90.0	 1.0	 340.135576679	 1	 350.0	 0.0;
	43	 420.0	 120.0	 420.0	 -180.0	 1.0	 832.440999926	 1	 840.0	 0.0;
	56	 275.0	 75.0	 280.0	 -130.0	 1.0	 546.171568101	 1	 550.0	 0.0;
	57	 25.0	 0.0	 20.0	 -20.0	 1.0	 46.1062790306	 1	 50.0	 0.0;
	58	 25.0	 0.0	 20.0	 -20.0	 1.0	 46.5332684994	 1	 50.0	 0.0;
	62	 20.0	 -5.0	 20.0	 -30.0	 1.0	 30.5123773107	 1	 40.0	 0.0;
	63	 15.0	 0.0	 20.0	 -20.0	 1.0	 29.6002670221	 1	 30.0	 0.0;
	64	 110.0	 25.0	 100.0	 -50.0	 1.0	 210.894545504	 1	 220.0	 0.0;
	65	 105.0	 25.0	 100.0	 -50.0	 1.0	 207.096134014	 1	 210.0	 0.0;
	66	 105.0	 25.0	 100.0	 -50.0	 1.0	 209.434487034	 1	 210.0	 0.0;
	67	 110.0	 25.0	 100.0	 -50.0	 1.0	 210.867295504	 1	 220.0	 0.0;
	69	 55.0	 0.0	 30.0	 -30.0	 1.0	 108.814849924	 1	 110.0	 0.0;
	70	 60.0	 0.0	 30.0	 -30.0	 1.0	 110.332978323	 1	 120.0	 0.0;
	73	 50.0	 5.0	 40.0	 -30.0	 1.0	 96.4876850574	 1	 100.0	 0.0;
	74	 50.0	 0.0	 40.0	 -40.0	 1.0	 98.0252477621	 1	 100.0	 0.0;
	75	 50.0	 0.0	 40.0	 -40.0	 1.0	 96.5074638391	 1	 100.0	 0.0;
	76	 420.0	 125.0	 410.0	 -160.0	 1.0	 835.119563407	 1	 840.0	 0.0;
	77	 415.0	 125.0	 410.0	 -160.0	 1.0	 829.49344425	 1	 830.0	 0.0;
	79	 30.0	 -5.0	 10.0	 -20.0	 1.0	 52.3175148502	 1	 60.0	 0.0;
	80	 30.0	 -5.0	 10.0	 -20.0	 1.0	 51.9722352538	 1	 60.0	 0.0;
	647	 45.0	 5.0	 40.0	 -30.0	 1.0	 86.468466581	 1	 90.0	 0.0;
	648	 50.0	 0.0	 40.0	 -40.0	 1.0	 90.0339754913	 1	 100.0	 0.0;
	654	 50.0	 0.0	 10.0	 -10.0	 1.0	 98.9588547303	 1	 100.0	 0.0;
	655	 90.0	 0.0	 10.0	 -10.0	 1.0	 179.468505843	 1	 180.0	 0.0;
	656	 15.0	 5.0	 10.0	 0.0	 1.0	 23.38719214	 1	 30.0	 0.0;
	658	 95.0	 15.0	 80.0	 -50.0	 1.0	 189.4753862	 1	 190.0	 0.0;
	659	 40.0	 5.0	 40.0	 -30.0	 1.0	 70.2652235693	 1	 80.0	 0.0;
	660	 40.0	 5.0	 40.0	 -30.0	 1.0	 71.0795632929	 1	 80.0	 0.0;
	665	 80.0	 0.0	 50.0	 -50.0	 1.0	 152.586644803	 1	 160.0	 0.0;
	668	 55.0	 0.0	 50.0	 -50.0	 1.0	 108.100446895	 1	 110.0	 0.0;
	672	 60.0	 0.0	 50.0	 -50.0	 1.0	 110.470307528	 1	 120.0	 0.0;
	674	 55.0	 0.0	 50.0	 -50.0	 1.0	 108.179150129	 1	 110.0	 0.0;
	680	 55.0	 0.0	 40.0	 -40.0	 1.0	 107.325694307	 1	 110.0	 0.0;
	681	 55.0	 5.0	 50.0	 -40.0	 1.0	 107.571180568	 1	 110.0	 0.0;
	682	 55.0	 0.0	 40.0	 -40.0	 1.0	 108.142809283	 1	 110.0	 0.0;
	684	 105.0	 35.0	 110.0	 -40.0	 1.0	 201.368655755	 1	 210.0	 0.0;
	685	 105.0	 35.0	 110.0	 -40.0	 1.0	 201.766158745	 1	 210.0	 0.0;
	687	 320.0	 60.0	 330.0	 -210.0	 1.0	 630.752565959	 1	 640.0	 0.0;
	688	 350.0	 55.0	 310.0	 -200.0	 1.0	 692.476477046	 1	 700.0	 0.0;
	689	 375.0	 115.0	 340.0	 -110.0	 1.0	 743.72757635	 1	 750.0	 0.0;
	690	 330.0	 110.0	 330.0	 -110.0	 1.0	 651.18307242	 1	 660.0	 0.0;
	691	 325.0	 110.0	 330.0	 -110.0	 1.0	 647.149878913	 1	 650.0	 0.0;
	693	 60.0	 0.0	 10.0	 -10.0	 1.0	 115.622949829	 1	 120.0	 0.0;
	694	 35.0	 -5.0	 20.0	 -30.0	 1.0	 69.6506796328	 1	 70.0	 0.0;
	695	 25.0	 0.0	 10.0	 -10.0	 1.0	 46.5815921206	 1	 50.0	 0.0;
	696	 60.0	 0.0	 20.0	 -20.0	 1.0	 114.864380666	 1	 120.0	 0.0;
	697	 40.0	 0.0	 10.0	 -10.0	 1.0	 73.2351605416	 1	 80.0	 0.0;
	698	 60.0	 -5.0	 20.0	 -30.0	 1.0	 113.018319971	 1	 120.0	 0.0;
	699	 55.0	 0.0	 20.0	 -20.0	 1.0	 100.974593	 1	 110.0	 0.0;
	700	 55.0	 0.0	 20.0	 -20.0	 1.0	 100.3645848	 1	 110.0	 0.0;
	701	 55.0	 0.0	 20.0	 -20.0	 1.0	 100.148673	 1	 110.0	 0.0;
	702	 180.0	 30.0	 130.0	 -70.0	 1.0	 352.297983418	 1	 360.0	 0.0;
	703	 180.0	 30.0	 130.0	 -70.0	 1.0	 353.577216341	 1	 360.0	 0.0;
	708	 30.0	 5.0	 30.0	 -20.0	 1.0	 51.611933054	 1	 60.0	 0.0;
	712	 315.0	 45.0	 260.0	 -170.0	 1.0	 626.956900198	 1	 630.0	 0.0;
	729	 55.0	 0.0	 20.0	 -20.0	 1.0	 100.8087346	 1	 110.0	 0.0;
	730	 240.0	 35.0	 190.0	 -120.0	 1.0	 476.643849199	 1	 480.0	 0.0;
	731	 210.0	 35.0	 190.0	 -120.0	 1.0	 413.478915313	 1	 420.0	 0.0;
	732	 245.0	 25.0	 200.0	 -150.0	 1.0	 481.32745693	 1	 490.0	 0.0;
	733	 240.0	 25.0	 200.0	 -150.0	 1.0	 475.496667556	 1	 480.0	 0.0;
	953	 25.0	 0.0	 20.0	 -20.0	 1.0	 47.1338866906	 1	 50.0	 0.0;
	954	 25.0	 0.0	 20.0	 -20.0	 1.0	 46.1283384357	 1	 50.0	 0.0;
	955	 30.0	 0.0	 20.0	 -20.0	 1.0	 53.53982914	 1	 60.0	 0.0;
	956	 35.0	 0.0	 20.0	 -20.0	 1.0	 66.5378691188	 1	 70.0	 0.0;
	1136	 30.0	 5.0	 30.0	 -20.0	 1.0	 56.4829927751	 1	 60.0	 0.0;
	1137	 40.0	 10.0	 40.0	 -20.0	 1.0	 70.4010887629	 1	 80.0	 0.0;
	1138	 30.0	 15.0	 50.0	 -20.0	 1.0	 55.8495727342	 1	 60.0	 0.0;
	1246	 125.0	 0.0	 20.0	 -20.0	 1.0	 240.121851233	 1	 250.0	 0.0;
	1274	 495.0	 85.0	 390.0	 -220.0	 1.0	 989.914190589	 1	 990.0	 0.0;
	1184	 25.0	 0.0	 20.0	 -20.0	 1.0	 47.8309784305	 1	 50.0	 0.0;
	1394	 165.0	 55.0	 150.0	 -40.0	 1.0	 327.941066311	 1	 330.0	 0.0;
	1395	 165.0	 50.0	 150.0	 -50.0	 1.0	 328.221132472	 1	 330.0	 0.0;
	1396	 170.0	 40.0	 150.0	 -70.0	 1.0	 333.526844754	 1	 340.0	 0.0;
	1397	 170.0	 45.0	 150.0	 -60.0	 1.0	 335.174992911	 1	 340.0	 0.0;
	1398	 165.0	 30.0	 150.0	 -90.0	 1.0	 323.952838556	 1	 330.0	 0.0;
	1399	 165.0	 35.0	 150.0	 -80.0	 1.0	 321.767278076	 1	 330.0	 0.0;
	1400	 215.0	 40.0	 180.0	 -100.0	 1.0	 422.53006078	 1	 430.0	 0.0;
	1401	 215.0	 45.0	 190.0	 -100.0	 1.0	 422.440994499	 1	 430.0	 0.0;
	1402	 210.0	 50.0	 190.0	 -90.0	 1.0	 416.575441946	 1	 420.0	 0.0;
	1403	 210.0	 45.0	 190.0	 -100.0	 1.0	 411.612221374	 1	 420.0	 0.0;
	1407	 215.0	 40.0	 190.0	 -110.0	 1.0	 428.869098612	 1	 430.0	 0.0;
	1408	 210.0	 40.0	 190.0	 -110.0	 1.0	 413.432336428	 1	 420.0	 0.0;
	1411	 80.0	 10.0	 70.0	 -50.0	 1.0	 158.354711055	 1	 160.0	 0.0;
	1412	 80.0	 10.0	 70.0	 -50.0	 1.0	 157.839378211	 1	 160.0	 0.0;
	1413	 80.0	 10.0	 70.0	 -50.0	 1.0	 153.609530653	 1	 160.0	 0.0;
	1414	 190.0	 35.0	 160.0	 -90.0	 1.0	 375.605614146	 1	 380.0	 0.0;
	1415	 105.0	 15.0	 90.0	 -60.0	 1.0	 209.356691143	 1	 210.0	 0.0;
	1416	 105.0	 15.0	 90.0	 -60.0	 1.0	 205.18749746	 1	 210.0	 0.0;
	1419	 315.0	 55.0	 230.0	 -120.0	 1.0	 628.052562263	 1	 630.0	 0.0;
	1420	 320.0	 50.0	 220.0	 -120.0	 1.0	 638.170104925	 1	 640.0	 0.0;
	1421	 340.0	 25.0	 260.0	 -210.0	 1.0	 671.132690537	 1	 680.0	 0.0;
	1425	 20.0	 0.0	 20.0	 -20.0	 1.0	 35.3824854665	 1	 40.0	 0.0;
	1426	 20.0	 0.0	 20.0	 -20.0	 1.0	 35.1063570457	 1	 40.0	 0.0;
	1429	 15.0	 5.0	 20.0	 -10.0	 1.0	 24.0841503046	 1	 30.0	 0.0;
	1430	 15.0	 5.0	 20.0	 -10.0	 1.0	 24.7130107383	 1	 30.0	 0.0;
	1431	 15.0	 5.0	 20.0	 -10.0	 1.0	 23.6974350719	 1	 30.0	 0.0;
	1432	 15.0	 5.0	 20.0	 -10.0	 1.0	 24.5818638734	 1	 30.0	 0.0;
	1433	 5.0	 0.0	 10.0	 -10.0	 1.0	 8.76514255389	 1	 10.0	 0.0;
	1437	 100.0	 10.0	 90.0	 -70.0	 1.0	 195.968994494	 1	 200.0	 0.0;
	1438	 55.0	 5.0	 50.0	 -40.0	 1.0	 105.795435098	 1	 110.0	 0.0;
	1439	 95.0	 15.0	 80.0	 -50.0	 1.0	 189.740778374	 1	 190.0	 0.0;
	1441	 20.0	 0.0	 20.0	 -20.0	 1.0	 34.7002429671	 1	 40.0	 0.0;
	1499	 115.0	 15.0	 90.0	 -60.0	 1.0	 223.215363414	 1	 230.0	 0.0;
	1500	 120.0	 25.0	 100.0	 -50.0	 1.0	 230.99071327	 1	 240.0	 0.0;
	1501	 115.0	 15.0	 90.0	 -60.0	 1.0	 225.237187796	 1	 230.0	 0.0;
	1558	 210.0	 50.0	 190.0	 -90.0	 1.0	 416.378375744	 1	 420.0	 0.0;
	1559	 215.0	 50.0	 190.0	 -90.0	 1.0	 426.8220308	 1	 430.0	 0.0;
	1560	 215.0	 10.0	 150.0	 -130.0	 1.0	 423.626371388	 1	 430.0	 0.0;
	1561	 260.0	 50.0	 190.0	 -90.0	 1.0	 515.843401	 1	 520.0	 0.0;
	1628	 290.0	 25.0	 230.0	 -180.0	 1.0	 579.866190145	 1	 580.0	 0.0;
	1629	 285.0	 20.0	 230.0	 -190.0	 1.0	 566.034920721	 1	 570.0	 0.0;
	1636	 20.0	 0.0	 10.0	 -10.0	 1.0	 36.2839481079	 1	 40.0	 0.0;
	1640	 65.0	 -5.0	 20.0	 -30.0	 1.0	 121.983711871	 1	 130.0	 0.0;
	1641	 15.0	 0.0	 10.0	 -10.0	 1.0	 21.6044311195	 1	 30.0	 0.0;
	1659	 20.0	 10.0	 30.0	 -10.0	 1.0	 36.2619373	 1	 40.0	 0.0;
	1660	 20.0	 10.0	 30.0	 -10.0	 1.0	 37.22684	 1	 40.0	 0.0;
	1661	 20.0	 10.0	 30.0	 -10.0	 1.0	 36.5241711	 1	 40.0	 0.0;
	1662	 20.0	 10.0	 30.0	 -10.0	 1.0	 37.0209491	 1	 40.0	 0.0;
	1665	 20.0	 10.0	 30.0	 -10.0	 1.0	 37.2833587994	 1	 40.0	 0.0;
	1666	 20.0	 10.0	 30.0	 -10.0	 1.0	 37.5285162406	 1	 40.0	 0.0;
	1667	 20.0	 10.0	 30.0	 -10.0	 1.0	 36.390120112	 1	 40.0	 0.0;
	1668	 20.0	 10.0	 30.0	 -10.0	 1.0	 36.1408798766	 1	 40.0	 0.0;
	1683	 45.0	 -5.0	 10.0	 -20.0	 1.0	 89.9570863414	 1	 90.0	 0.0;
	1684	 100.0	 5.0	 90.0	 -80.0	 1.0	 198.828031234	 1	 200.0	 0.0;
	1685	 100.0	 5.0	 90.0	 -80.0	 1.0	 194.91053827	 1	 200.0	 0.0;
	1686	 105.0	 5.0	 90.0	 -80.0	 1.0	 203.925937386	 1	 210.0	 0.0;
	1690	 85.0	 35.0	 70.0	 0.0	 1.0	 162.354895275	 1	 170.0	 0.0;
	1691	 80.0	 35.0	 70.0	 0.0	 1.0	 159.278157003	 1	 160.0	 0.0;
	1692	 80.0	 35.0	 70.0	 0.0	 1.0	 159.933895853	 1	 160.0	 0.0;
	1693	 135.0	 30.0	 110.0	 -50.0	 1.0	 266.940658889	 1	 270.0	 0.0;
	1694	 140.0	 30.0	 110.0	 -50.0	 1.0	 272.70431192	 1	 280.0	 0.0;
	1695	 135.0	 30.0	 110.0	 -50.0	 1.0	 262.876889418	 1	 270.0	 0.0;
	1696	 90.0	 15.0	 70.0	 -40.0	 1.0	 175.505024694	 1	 180.0	 0.0;
	1697	 45.0	 10.0	 40.0	 -20.0	 1.0	 88.5158615344	 1	 90.0	 0.0;
	1699	 30.0	 5.0	 30.0	 -20.0	 1.0	 50.0930213746	 1	 60.0	 0.0;
	1705	 20.0	 0.0	 10.0	 -10.0	 1.0	 34.96740921	 1	 40.0	 0.0;
	1706	 55.0	 0.0	 10.0	 -10.0	 1.0	 100.7653224	 1	 110.0	 0.0;
	1708	 40.0	 -5.0	 20.0	 -30.0	 1.0	 77.61118044	 1	 80.0	 0.0;
	1709	 55.0	 0.0	 40.0	 -40.0	 1.0	 109.9329537	 1	 110.0	 0.0;
	1710	 30.0	 0.0	 10.0	 -10.0	 1.0	 50.33152763	 1	 60.0	 0.0;
	12	 55.0	 85.0	 320.0	 -150.0	 1.0	 1.08747929754	 1	 110.0	 0.0;
	24	 40.0	 0.0	 0.0	 0.0	 1.0	 0.793884932048	 1	 80.0	 0.0;
	25	 40.0	 0.0	 0.0	 0.0	 1.0	 0.716493531626	 1	 80.0	 0.0;
	26	 30.0	 -5.0	 10.0	 -20.0	 1.0	 0.500407203184	 1	 60.0	 0.0;
	28	 55.0	 -55.0	 60.0	 -170.0	 1.0	 1.0770017568	 1	 110.0	 0.0;
	61	 95.0	 80.0	 330.0	 -170.0	 1.0	 1.8038791959	 1	 190.0	 0.0;
	142	 450.0	 0.0	 200.0	 -200.0	 1.0	 9.0	 1	 900.0	 0.0;
	166	 140.0	 25.0	 160.0	 -110.0	 1.0	 2.7390638832	 1	 280.0	 0.0;
	174	 50.0	 -5.0	 10.0	 -20.0	 1.0	 0.90594362457	 1	 100.0	 0.0;
	211	 55.0	 -5.0	 20.0	 -30.0	 1.0	 1.0751540007	 1	 110.0	 0.0;
	570	 35.0	 -5.0	 10.0	 -20.0	 1.0	 0.603422971425	 1	 70.0	 0.0;
	651	 35.0	 -5.0	 10.0	 -20.0	 1.0	 0.681386511933	 1	 70.0	 0.0;
	652	 40.0	 0.0	 10.0	 -10.0	 1.0	 0.722928195973	 1	 80.0	 0.0;
	661	 45.0	 15.0	 60.0	 -30.0	 1.0	 0.805258456164	 1	 90.0	 0.0;
	677	 45.0	 5.0	 30.0	 -20.0	 1.0	 0.8649797139	 1	 90.0	 0.0;
	683	 45.0	 15.0	 60.0	 -30.0	 1.0	 0.80693756034	 1	 90.0	 0.0;
	707	 45.0	 -5.0	 40.0	 -50.0	 1.0	 0.832871174747	 1	 90.0	 0.0;
	715	 40.0	 -5.0	 10.0	 -20.0	 1.0	 0.715440445794	 1	 80.0	 0.0;
	721	 145.0	 -80.0	 80.0	 -240.0	 1.0	 2.80830472911	 1	 290.0	 0.0;
	724	 90.0	 20.0	 110.0	 -70.0	 1.0	 1.75262014933	 1	 180.0	 0.0;
	725	 90.0	 20.0	 110.0	 -70.0	 1.0	 1.74613961108	 1	 180.0	 0.0;
	728	 100.0	 0.0	 20.0	 -20.0	 1.0	 1.9724738834	 1	 200.0	 0.0;
	881	 35.0	 -5.0	 10.0	 -20.0	 1.0	 0.640437450315	 1	 70.0	 0.0;
	882	 30.0	 -5.0	 10.0	 -20.0	 1.0	 0.50982324399	 1	 60.0	 0.0;
	644	 5.0	 0.0	 10.0	 -10.0	 1.0	 0.0789633095503	 1	 10.0	 0.0;
	986	 140.0	 -85.0	 80.0	 -250.0	 1.0	 2.74416846883	 1	 280.0	 0.0;
	1090	 55.0	 40.0	 170.0	 -90.0	 1.0	 1.05007658096	 1	 110.0	 0.0;
	1252	 55.0	 15.0	 110.0	 -80.0	 1.0	 1.09975473457	 1	 110.0	 0.0;
	1253	 55.0	 15.0	 110.0	 -80.0	 1.0	 1.05775765323	 1	 110.0	 0.0;
	1255	 55.0	 15.0	 110.0	 -80.0	 1.0	 1.09717493209	 1	 110.0	 0.0;
	1265	 55.0	 0.0	 110.0	 -110.0	 1.0	 1.07825675532	 1	 110.0	 0.0;
	1307	 55.0	 35.0	 160.0	 -90.0	 1.0	 1.05003915667	 1	 110.0	 0.0;
	1516	 55.0	 130.0	 370.0	 -110.0	 1.0	 1.06145243761	 1	 110.0	 0.0;
	1520	 55.0	 135.0	 380.0	 -110.0	 1.0	 1.08770793499	 1	 110.0	 0.0;
	1531	 55.0	 95.0	 280.0	 -90.0	 1.0	 1.08463595104	 1	 110.0	 0.0;
	1534	 55.0	 40.0	 170.0	 -90.0	 1.0	 1.06086461891	 1	 110.0	 0.0;
	1562	 55.0	 135.0	 380.0	 -110.0	 1.0	 1.06119855433	 1	 110.0	 0.0;
	1564	 55.0	 100.0	 280.0	 -80.0	 1.0	 1.07012154777	 1	 110.0	 0.0;
...
];

%% generator cost data
%	2	startup	shutdown	n	c(n-1)	...	c0
mpc.gencost = [
2	350.0	0.0	3	0.2	7.095890	0.000000;
2	350.0	0.0	3	0.2	17.803653	0.000000;
2	350.0	0.0	3	0.2	17.803653	0.000000;
2	350.0	0.0	3	0.2	17.803653	0.000000;
2	5.0	0.0	3	0.2	13.472603	0.000000;
2	100.0	0.0	3	0.2	9.921005	0.000000;
2	0.0	0.0	3	0.2	0.001000	0.000000;
2	350.0	0.0	3	0.2	17.803653	0.000000;
2	0.0	0.0	3	0.2	0.001000	0.000000;
2	100.0	0.0	3	0.2	9.921005	0.000000;
2	100.0	0.0	3	0.2	9.921005	0.000000;
2	0.0	0.0	3	0.2	0.001000	0.000000;
2	0.0	0.0	3	0.2	0.001000	0.000000;
2	5.0	0.0	3	0.2	14.908676	0.000000;
2	100.0	0.0	3	0.2	9.921005	0.000000;
2	100.0	0.0	3	0.2	9.921005	0.000000;
2	0.0	0.0	3	0.2	0.001000	0.000000;
2	0.0	0.0	3	0.2	0.001000	0.000000;
2	0.0	0.0	3	0.2	0.001000	0.000000;
2	0.0	0.0	3	0.2	0.001000	0.000000;
2	0.0	0.0	3	0.2	0.001000	0.000000;
2	0.0	0.0	3	0.2	0.001000	0.000000;
2	0.0	0.0	3	0.2	0.001000	0.000000;
2	350.0	0.0	3	0.2	7.095890	0.000000;
2	0.0	0.0	3	0.2	0.001000	0.000000;
2	5.0	0.0	3	0.2	14.908676	0.000000;
2	0.0	0.0	3	0.2	0.001000	0.000000;
2	100.0	0.0	3	0.2	9.921005	0.000000;
2	100.0	0.0	3	0.2	9.921005	0.000000;
2	0.0	0.0	3	0.2	0.001000	0.000000;
2	0.0	0.0	3	0.2	0.001000	0.000000;
2	0.0	0.0	3	0.2	0.001000	0.000000;
2	0.0	0.0	3	0.2	0.001000	0.000000;
2	0.0	0.0	3	0.2	0.001000	0.000000;
2	0.0	0.0	3	0.2	0.001000	0.000000;
2	0.0	0.0	3	0.2	0.001000	0.000000;
2	0.0	0.0	3	0.2	0.001000	0.000000;
2	0.0	0.0	3	0.2	0.001000	0.000000;
2	350.0	0.0	3	0.2	7.095890	0.000000;
2	350.0	0.0	3	0.2	7.095890	0.000000;
2	0.0	0.0	3	0.2	0.001000	0.000000;
2	0.0	0.0	3	0.2	0.001000	0.000000;
2	0.0	0.0	3	0.2	0.001000	0.000000;
2	0.0	0.0	3	0.2	0.001000	0.000000;
2	0.0	0.0	3	0.2	0.001000	0.000000;
2	100.0	0.0	3	0.2	12.021005	0.000000;
2	0.0	0.0	3	0.2	0.001000	0.000000;
2	0.0	0.0	3	0.2	0.001000	0.000000;
2	0.0	0.0	3	0.2	0.001000	0.000000;
2	0.0	0.0	3	0.2	0.001000	0.000000;
2	100.0	0.0	3	0.2	12.021005	0.000000;
2	0.0	0.0	3	0.2	0.001000	0.000000;
2	0.0	0.0	3	0.2	0.001000	0.000000;
2	0.0	0.0	3	0.2	0.001000	0.000000;
2	0.0	0.0	3	0.2	0.001000	0.000000;
2	0.0	0.0	3	0.2	0.001000	0.000000;
2	0.0	0.0	3	0.2	0.001000	0.000000;
2	100.0	0.0	3	0.2	12.021005	0.000000;
2	100.0	0.0	3	0.2	12.021005	0.000000;
2	350.0	0.0	3	0.2	17.803653	0.000000;
2	350.0	0.0	3	0.2	17.803653	0.000000;
2	350.0	0.0	3	0.2	17.803653	0.000000;
2	350.0	0.0	3	0.2	17.803653	0.000000;
2	350.0	0.0	3	0.2	17.803653	0.000000;
2	100.0	0.0	3	0.2	12.021005	0.000000;
2	0.0	0.0	3	0.2	0.001000	0.000000;
2	0.0	0.0	3	0.2	0.001000	0.000000;
2	100.0	0.0	3	0.2	12.021005	0.000000;
2	0.0	0.0	3	0.2	0.001000	0.000000;
2	0.0	0.0	3	0.2	0.001000	0.000000;
2	0.0	0.0	3	0.2	0.001000	0.000000;
2	0.0	0.0	3	0.2	0.001000	0.000000;
2	100.0	0.0	3	0.2	12.021005	0.000000;
2	0.0	0.0	3	0.2	0.001000	0.000000;
2	100.0	0.0	3	0.2	12.021005	0.000000;
2	0.0	0.0	3	0.2	0.001000	0.000000;
2	350.0	0.0	3	0.2	17.803653	0.000000;
2	0.0	0.0	3	0.2	0.001000	0.000000;
2	100.0	0.0	3	0.2	12.021005	0.000000;
2	0.0	0.0	3	0.2	0.001000	0.000000;
2	100.0	0.0	3	0.2	12.021005	0.000000;
2	0.0	0.0	3	0.2	0.001000	0.000000;
2	0.0	0.0	3	0.2	0.001000	0.000000;
2	0.0	0.0	3	0.2	0.001000	0.000000;
2	0.0	0.0	3	0.2	0.001000	0.000000;
2	0.0	0.0	3	0.2	0.001000	0.000000;
2	62.5	0.0	3	0.2	10.081279	0.000000;
2	0.0	0.0	3	0.2	0.001000	0.000000;
2	62.5	0.0	3	0.2	10.081279	0.000000;
2	62.5	0.0	3	0.2	10.081279	0.000000;
2	350.0	0.0	3	0.2	7.164384	0.000000;
2	62.5	0.0	3	0.2	10.081279	0.000000;
2	350.0	0.0	3	0.2	7.164384	0.000000;
2	350.0	0.0	3	0.2	7.164384	0.000000;
2	0.0	0.0	3	0.2	0.001000	0.000000;
2	0.0	0.0	3	0.2	0.001000	0.000000;
2	350.0	0.0	3	0.2	7.164384	0.000000;
2	350.0	0.0	3	0.2	7.164384	0.000000;
2	350.0	0.0	3	0.2	7.164384	0.000000;
2	350.0	0.0	3	0.2	7.164384	0.000000;
2	350.0	0.0	3	0.2	7.164384	0.000000;
2	62.5	0.0	3	0.2	10.081279	0.000000;
2	62.5	0.0	3	0.2	10.081279	0.000000;
2	62.5	0.0	3	0.2	10.081279	0.000000;
2	62.5	0.0	3	0.2	10.081279	0.000000;
2	62.5	0.0	3	0.2	10.081279	0.000000;
2	62.5	0.0	3	0.2	10.081279	0.000000;
2	350.0	0.0	3	0.2	7.164384	0.000000;
2	62.5	0.0	3	0.2	10.081279	0.000000;
2	62.5	0.0	3	0.2	10.081279	0.000000;
2	350.0	0.0	3	0.2	7.164384	0.000000;
2	350.0	0.0	3	0.2	7.164384	0.000000;
2	350.0	0.0	3	0.2	7.164384	0.000000;
2	62.5	0.0	3	0.2	10.081279	0.000000;
2	62.5	0.0	3	0.2	10.081279	0.000000;
2	0.0	0.0	3	0.2	0.001000	0.000000;
2	62.5	0.0	3	0.2	10.081279	0.000000;
2	0.0	0.0	3	0.2	0.001000	0.000000;
2	0.0	0.0	3	0.2	0.001000	0.000000;
2	0.0	0.0	3	0.2	0.001000	0.000000;
2	62.5	0.0	3	0.2	10.081279	0.000000;
2	350.0	0.0	3	0.2	7.164384	0.000000;
2	350.0	0.0	3	0.2	7.164384	0.000000;
2	62.5	0.0	3	0.2	10.081279	0.000000;
2	62.5	0.0	3	0.2	10.081279	0.000000;
2	62.5	0.0	3	0.2	10.081279	0.000000;
2	62.5	0.0	3	0.2	10.081279	0.000000;
2	62.5	0.0	3	0.2	10.081279	0.000000;
2	350.0	0.0	3	0.2	7.164384	0.000000;
2	350.0	0.0	3	0.2	7.164384	0.000000;
2	350.0	0.0	3	0.2	7.164384	0.000000;
2	350.0	0.0	3	0.2	7.164384	0.000000;
2	350.0	0.0	3	0.2	7.164384	0.000000;
2	0.0	0.0	3	0.2	0.001000	0.000000;
2	0.0	0.0	3	0.2	0.001000	0.000000;
2	0.0	0.0	3	0.2	0.001000	0.000000;
2	0.0	0.0	3	0.2	0.001000	0.000000;
2	0.0	0.0	3	0.2	0.001000	0.000000;
2	0.0	0.0	3	0.2	0.001000	0.000000;
2	0.0	0.0	3	0.2	0.001000	0.000000;
2	0.0	0.0	3	0.2	0.001000	0.000000;
2	0.0	0.0	3	0.2	0.001000	0.000000;
2	100.0	0.0	3	0.2	12.021005	0.000000;
2	100.0	0.0	3	0.2	12.021005	0.000000;
2	0.0	0.0	3	0.2	0.001000	0.000000;
2	100.0	0.0	3	0.2	12.021005	0.000000;
2	100.0	0.0	3	0.2	12.021005	0.000000;
2	100.0	0.0	3	0.2	12.021005	0.000000;
2	0.0	0.0	3	0.2	0.001000	0.000000;
2	0.0	0.0	3	0.2	0.001000	0.000000;
2	100.0	0.0	3	0.2	12.021005	0.000000;
2	100.0	0.0	3	0.2	12.021005	0.000000;
2	100.0	0.0	3	0.2	12.021005	0.000000;
2	100.0	0.0	3	0.2	12.021005	0.000000;
2	100.0	0.0	3	0.2	12.021005	0.000000;
2	0.0	0.0	3	0.2	0.001000	0.000000;
2	0.0	0.0	3	0.2	0.001000	0.000000;
2	0.0	0.0	3	0.2	0.001000	0.000000;
2	0.0	0.0	3	0.2	0.001000	0.000000;
2	0.0	0.0	3	0.2	0.001000	0.000000;
2	0.0	0.0	3	0.2	0.001000	0.000000;
2	0.0	0.0	3	0.2	0.001000	0.000000;
2	0.0	0.0	3	0.2	0.001000	0.000000;
2	0.0	0.0	3	0.2	0.001000	0.000000;
2	0.0	0.0	3	0.2	0.001000	0.000000;
2	0.0	0.0	3	0.2	0.001000	0.000000;
2	0.0	0.0	3	0.2	0.001000	0.000000;
2	0.0	0.0	3	0.2	0.001000	0.000000;
2	0.0	0.0	3	0.2	0.001000	0.000000;
2	0.0	0.0	3	0.2	0.001000	0.000000;
2	0.0	0.0	3	0.2	0.001000	0.000000;
2	0.0	0.0	3	0.2	0.001000	0.000000;
2	0.0	0.0	3	0.2	0.001000	0.000000;
2	0.0	0.0	3	0.2	0.001000	0.000000;
2	0.0	0.0	3	0.2	0.001000	0.000000;
2	0.0	0.0	3	0.2	0.001000	0.000000;
2	0.0	0.0	3	0.2	0.001000	0.000000;
2	0.0	0.0	3	0.2	0.001000	0.000000;
2	0.0	0.0	3	0.2	0.001000	0.000000;
2	0.0	0.0	3	0.2	0.001000	0.000000;
2	0.0	0.0	3	0.2	0.001000	0.000000;
2	0.0	0.0	3	0.2	0.001000	0.000000;
2	0.0	0.0	3	0.2	0.001000	0.000000;
2	0.0	0.0	3	0.2	0.001000	0.000000;
2	0.0	0.0	3	0.2	0.001000	0.000000;
2	0.0	0.0	3	0.2	0.001000	0.000000;
2	0.0	0.0	3	0.2	0.001000	0.000000;
2	0.0	0.0	3	0.2	0.001000	0.000000;
2	0.0	0.0	3	0.2	0.001000	0.000000;
2	0.0	0.0	3	0.2	0.001000	0.000000;
2	0.0	0.0	3	0.2	0.001000	0.000000;
2	0.0	0.0	3	0.2	0.001000	0.000000;
2	0.0	0.0	3	0.2	0.001000	0.000000;
2	0.0	0.0	3	0.2	0.001000	0.000000;
2	0.0	0.0	3	0.2	0.001000	0.000000;
2	0.0	0.0	3	0.2	0.001000	0.000000;
2	0.0	0.0	3	0.2	0.001000	0.000000;
2	0.0	0.0	3	0.2	0.001000	0.000000;
2	0.0	0.0	3	0.2	0.001000	0.000000;
2	0.0	0.0	3	0.2	0.001000	0.000000;
...
];

%% storage data
%	bus	energy	energy_rating	charge_rating	discharge_rating	thermal_rating	qmin	qmax	r	x	standby_loss	status
mpc.storage = [
	139	0.0	0.0	1.00	1453.5225	726.7613	523.2681	0.9	0.85	1000	-1000	1000	0.1	0.01	0	0	1;
	1451	0.0	0.0	1.00	1237.4251	618.7126	445.4730	0.9	0.85	1000	-1000	1000	0.1	0.01	0	0	1;
	178	0.0	0.0	1.00	948.7776	474.3888	341.5599	0.9	0.85	1000	-1000	1000	0.1	0.01	0	0	1;
	979	0.0	0.0	1.00	697.0948	348.5474	250.9541	0.9	0.85	1000	-1000	1000	0.1	0.01	0	0	1;
	253	0.0	0.0	1.00	645.5474	322.7737	232.3971	0.9	0.85	1000	-1000	1000	0.1	0.01	0	0	1;
	245	0.0	0.0	1.00	557.9281	278.9640	200.8541	0.9	0.85	1000	-1000	1000	0.1	0.01	0	0	1;
	859	0.0	0.0	1.00	496.0398	248.0199	178.5743	0.9	0.85	1000	-1000	1000	0.1	0.01	0	0	1;
	926	0.0	0.0	1.00	469.1913	234.5957	168.9089	0.9	0.85	1000	-1000	1000	0.1	0.01	0	0	1;
	907	0.0	0.0	1.00	460.8132	230.4066	165.8928	0.9	0.85	1000	-1000	1000	0.1	0.01	0	0	1;
	282	0.0	0.0	1.00	459.4955	229.7477	165.4184	0.9	0.85	1000	-1000	1000	0.1	0.01	0	0	1;
	159	0.0	0.0	1.00	452.2967	226.1483	162.8268	0.9	0.85	1000	-1000	1000	0.1	0.01	0	0	1;
	876	0.0	0.0	1.00	434.6160	217.3080	156.4617	0.9	0.85	1000	-1000	1000	0.1	0.01	0	0	1;
	162	0.0	0.0	1.00	423.1848	211.5924	152.3465	0.9	0.85	1000	-1000	1000	0.1	0.01	0	0	1;
	883	0.0	0.0	1.00	401.2391	200.6195	144.4461	0.9	0.85	1000	-1000	1000	0.1	0.01	0	0	1;
	925	0.0	0.0	1.00	376.3300	188.1650	135.4788	0.9	0.85	1000	-1000	1000	0.1	0.01	0	0	1;
	450	0.0	0.0	1.00	370.7820	185.3910	133.4815	0.9	0.85	1000	-1000	1000	0.1	0.01	0	0	1;
	177	0.0	0.0	1.00	367.8999	183.9500	132.4440	0.9	0.85	1000	-1000	1000	0.1	0.01	0	0	1;
	868	0.0	0.0	1.00	364.5743	182.2871	131.2467	0.9	0.85	1000	-1000	1000	0.1	0.01	0	0	1;
	909	0.0	0.0	1.00	361.1448	180.5724	130.0121	0.9	0.85	1000	-1000	1000	0.1	0.01	0	0	1;
	910	0.0	0.0	1.00	357.1527	178.5763	128.5750	0.9	0.85	1000	-1000	1000	0.1	0.01	0	0	1;
	867	0.0	0.0	1.00	339.8697	169.9349	122.3531	0.9	0.85	1000	-1000	1000	0.1	0.01	0	0	1;
	179	0.0	0.0	1.00	323.8795	161.9398	116.5966	0.9	0.85	1000	-1000	1000	0.1	0.01	0	0	1;
	833	0.0	0.0	1.00	318.7677	159.3838	114.7564	0.9	0.85	1000	-1000	1000	0.1	0.01	0	0	1;
	884	0.0	0.0	1.00	312.1011	156.0505	112.3564	0.9	0.85	1000	-1000	1000	0.1	0.01	0	0	1;
	277	0.0	0.0	1.00	305.8139	152.9070	110.0930	0.9	0.85	1000	-1000	1000	0.1	0.01	0	0	1;
	924	0.0	0.0	1.00	304.8275	152.4138	109.7379	0.9	0.85	1000	-1000	1000	0.1	0.01	0	0	1;
	911	0.0	0.0	1.00	299.1669	149.5835	107.7001	0.9	0.85	1000	-1000	1000	0.1	0.01	0	0	1;
	912	0.0	0.0	1.00	294.3069	147.1535	105.9505	0.9	0.85	1000	-1000	1000	0.1	0.01	0	0	1;
	866	0.0	0.0	1.00	283.7145	141.8573	102.1372	0.9	0.85	1000	-1000	1000	0.1	0.01	0	0	1;
	872	0.0	0.0	1.00	281.0976	140.5488	101.1951	0.9	0.85	1000	-1000	1000	0.1	0.01	0	0	1;
	361	0.0	0.0	1.00	275.4574	137.7287	99.1646	0.9	0.85	1000	-1000	1000	0.1	0.01	0	0	1;
	919	0.0	0.0	1.00	266.4611	133.2306	95.9260	0.9	0.85	1000	-1000	1000	0.1	0.01	0	0	1;
	32	0.0	0.0	1.00	265.1009	132.5504	95.4363	0.9	0.85	1000	-1000	1000	0.1	0.01	0	0	1;
	248	0.0	0.0	1.00	252.9366	126.4683	91.0572	0.9	0.85	1000	-1000	1000	0.1	0.01	0	0	1;
	1508	0.0	0.0	1.00	252.6258	126.3129	90.9453	0.9	0.85	1000	-1000	1000	0.1	0.01	0	0	1;
	908	0.0	0.0	1.00	245.9674	122.9837	88.5483	0.9	0.85	1000	-1000	1000	0.1	0.01	0	0	1;
	191	0.0	0.0	1.00	237.4959	118.7479	85.4985	0.9	0.85	1000	-1000	1000	0.1	0.01	0	0	1;
	895	0.0	0.0	1.00	236.7189	118.3594	85.2188	0.9	0.85	1000	-1000	1000	0.1	0.01	0	0	1;
	398	0.0	0.0	1.00	234.5494	117.2747	84.4378	0.9	0.85	1000	-1000	1000	0.1	0.01	0	0	1;
	1452	0.0	0.0	1.00	231.7721	115.8860	83.4380	0.9	0.85	1000	-1000	1000	0.1	0.01	0	0	1;
	537	0.0	0.0	1.00	230.3989	115.1995	82.9436	0.9	0.85	1000	-1000	1000	0.1	0.01	0	0	1;
	913	0.0	0.0	1.00	229.7199	114.8600	82.6992	0.9	0.85	1000	-1000	1000	0.1	0.01	0	0	1;
	857	0.0	0.0	1.00	228.8399	114.4200	82.3824	0.9	0.85	1000	-1000	1000	0.1	0.01	0	0	1;
	914	0.0	0.0	1.00	228.5908	114.2954	82.2927	0.9	0.85	1000	-1000	1000	0.1	0.01	0	0	1;
	389	0.0	0.0	1.00	223.3848	111.6924	80.4185	0.9	0.85	1000	-1000	1000	0.1	0.01	0	0	1;
	299	0.0	0.0	1.00	220.2461	110.1230	79.2886	0.9	0.85	1000	-1000	1000	0.1	0.01	0	0	1;
	1262	0.0	0.0	1.00	211.2954	105.6477	76.0663	0.9	0.85	1000	-1000	1000	0.1	0.01	0	0	1;
	171	0.0	0.0	1.00	209.6340	104.8170	75.4683	0.9	0.85	1000	-1000	1000	0.1	0.01	0	0	1;
	986	0.0	0.0	1.00	207.8289	103.9144	74.8184	0.9	0.85	1000	-1000	1000	0.1	0.01	0	0	1;
	735	0.0	0.0	1.00	207.1490	103.5745	74.5736	0.9	0.85	1000	-1000	1000	0.1	0.01	0	0	1;
	527	0.0	0.0	1.00	203.9619	101.9810	73.4263	0.9	0.85	1000	-1000	1000	0.1	0.01	0	0	1;
	563	0.0	0.0	1.00	190.1264	95.0632	68.4455	0.9	0.85	1000	-1000	1000	0.1	0.01	0	0	1;
	899	0.0	0.0	1.00	188.6620	94.3310	67.9183	0.9	0.85	1000	-1000	1000	0.1	0.01	0	0	1;
	447	0.0	0.0	1.00	186.5886	93.2943	67.1719	0.9	0.85	1000	-1000	1000	0.1	0.01	0	0	1;
	856	0.0	0.0	1.00	177.8352	88.9176	64.0207	0.9	0.85	1000	-1000	1000	0.1	0.01	0	0	1;
	1373	0.0	0.0	1.00	169.0149	84.5075	60.8454	0.9	0.85	1000	-1000	1000	0.1	0.01	0	0	1;
	1298	0.0	0.0	1.00	165.8049	82.9024	59.6898	0.9	0.85	1000	-1000	1000	0.1	0.01	0	0	1;
	915	0.0	0.0	1.00	163.3753	81.6876	58.8151	0.9	0.85	1000	-1000	1000	0.1	0.01	0	0	1;
	420	0.0	0.0	1.00	162.8221	81.4110	58.6160	0.9	0.85	1000	-1000	1000	0.1	0.01	0	0	1;
	1325	0.0	0.0	1.00	161.9116	80.9558	58.2882	0.9	0.85	1000	-1000	1000	0.1	0.01	0	0	1;
	1360	0.0	0.0	1.00	160.9507	80.4754	57.9423	0.9	0.85	1000	-1000	1000	0.1	0.01	0	0	1;
	580	0.0	0.0	1.00	159.9678	79.9839	57.5884	0.9	0.85	1000	-1000	1000	0.1	0.01	0	0	1;
	930	0.0	0.0	1.00	159.0995	79.5497	57.2758	0.9	0.85	1000	-1000	1000	0.1	0.01	0	0	1;
	258	0.0	0.0	1.00	158.0350	79.0175	56.8926	0.9	0.85	1000	-1000	1000	0.1	0.01	0	0	1;
	1317	0.0	0.0	1.00	156.1640	78.0820	56.2190	0.9	0.85	1000	-1000	1000	0.1	0.01	0	0	1;
	185	0.0	0.0	1.00	155.6637	77.8319	56.0389	0.9	0.85	1000	-1000	1000	0.1	0.01	0	0	1;
	1188	0.0	0.0	1.00	155.6373	77.8186	56.0294	0.9	0.85	1000	-1000	1000	0.1	0.01	0	0	1;
	871	0.0	0.0	1.00	155.2200	77.6100	55.8792	0.9	0.85	1000	-1000	1000	0.1	0.01	0	0	1;
	609	0.0	0.0	1.00	155.1677	77.5838	55.8604	0.9	0.85	1000	-1000	1000	0.1	0.01	0	0	1;
	1343	0.0	0.0	1.00	152.1358	76.0679	54.7689	0.9	0.85	1000	-1000	1000	0.1	0.01	0	0	1;
	233	0.0	0.0	1.00	145.6576	72.8288	52.4367	0.9	0.85	1000	-1000	1000	0.1	0.01	0	0	1;
	1329	0.0	0.0	1.00	145.5635	72.7817	52.4029	0.9	0.85	1000	-1000	1000	0.1	0.01	0	0	1;
	1620	0.0	0.0	1.00	145.2346	72.6173	52.2845	0.9	0.85	1000	-1000	1000	0.1	0.01	0	0	1;
	499	0.0	0.0	1.00	144.0046	72.0023	51.8416	0.9	0.85	1000	-1000	1000	0.1	0.01	0	0	1;
	920	0.0	0.0	1.00	142.4033	71.2016	51.2652	0.9	0.85	1000	-1000	1000	0.1	0.01	0	0	1;
	897	0.0	0.0	1.00	139.1573	69.5787	50.0966	0.9	0.85	1000	-1000	1000	0.1	0.01	0	0	1;
	906	0.0	0.0	1.00	137.8504	68.9252	49.6262	0.9	0.85	1000	-1000	1000	0.1	0.01	0	0	1;
	565	0.0	0.0	1.00	137.6584	68.8292	49.5570	0.9	0.85	1000	-1000	1000	0.1	0.01	0	0	1;
	468	0.0	0.0	1.00	135.5018	67.7509	48.7806	0.9	0.85	1000	-1000	1000	0.1	0.01	0	0	1;
	1251	0.0	0.0	1.00	135.1864	67.5932	48.6671	0.9	0.85	1000	-1000	1000	0.1	0.01	0	0	1;
	211	0.0	0.0	1.00	128.7069	64.3534	46.3345	0.9	0.85	1000	-1000	1000	0.1	0.01	0	0	1;
	1446	0.0	0.0	1.00	127.4765	63.7383	45.8916	0.9	0.85	1000	-1000	1000	0.1	0.01	0	0	1;
	555	0.0	0.0	1.00	125.1889	62.5945	45.0680	0.9	0.85	1000	-1000	1000	0.1	0.01	0	0	1;
	1494	0.0	0.0	1.00	124.1261	62.0631	44.6854	0.9	0.85	1000	-1000	1000	0.1	0.01	0	0	1;
	221	0.0	0.0	1.00	123.0474	61.5237	44.2971	0.9	0.85	1000	-1000	1000	0.1	0.01	0	0	1;
	194	0.0	0.0	1.00	120.6453	60.3227	43.4323	0.9	0.85	1000	-1000	1000	0.1	0.01	0	0	1;
	430	0.0	0.0	1.00	120.4828	60.2414	43.3738	0.9	0.85	1000	-1000	1000	0.1	0.01	0	0	1;
	1175	0.0	0.0	1.00	120.2863	60.1432	43.3031	0.9	0.85	1000	-1000	1000	0.1	0.01	0	0	1;
	1007	0.0	0.0	1.00	119.8235	59.9118	43.1365	0.9	0.85	1000	-1000	1000	0.1	0.01	0	0	1;
	182	0.0	0.0	1.00	117.6992	58.8496	42.3717	0.9	0.85	1000	-1000	1000	0.1	0.01	0	0	1;
	1245	0.0	0.0	1.00	115.8618	57.9309	41.7102	0.9	0.85	1000	-1000	1000	0.1	0.01	0	0	1;
	887	0.0	0.0	1.00	112.4793	56.2396	40.4925	0.9	0.85	1000	-1000	1000	0.1	0.01	0	0	1;
	311	0.0	0.0	1.00	112.3502	56.1751	40.4461	0.9	0.85	1000	-1000	1000	0.1	0.01	0	0	1;
	1301	0.0	0.0	1.00	112.2352	56.1176	40.4047	0.9	0.85	1000	-1000	1000	0.1	0.01	0	0	1;
	951	0.0	0.0	1.00	111.8179	55.9089	40.2544	0.9	0.85	1000	-1000	1000	0.1	0.01	0	0	1;
	401	0.0	0.0	1.00	111.3340	55.6670	40.0802	0.9	0.85	1000	-1000	1000	0.1	0.01	0	0	1;
	556	0.0	0.0	1.00	111.2090	55.6045	40.0352	0.9	0.85	1000	-1000	1000	0.1	0.01	0	0	1;
	1479	0.0	0.0	1.00	110.2823	55.1412	39.7016	0.9	0.85	1000	-1000	1000	0.1	0.01	0	0	1;
	1087	0.0	0.0	1.00	108.9041	54.4521	39.2055	0.9	0.85	1000	-1000	1000	0.1	0.01	0	0	1;
	240	0.0	0.0	1.00	108.1003	54.0502	38.9161	0.9	0.85	1000	-1000	1000	0.1	0.01	0	0	1;
	1333	0.0	0.0	1.00	107.7873	53.8936	38.8034	0.9	0.85	1000	-1000	1000	0.1	0.01	0	0	1;
	294	0.0	0.0	1.00	105.1546	52.5773	37.8557	0.9	0.85	1000	-1000	1000	0.1	0.01	0	0	1;
	598	0.0	0.0	1.00	105.1244	52.5622	37.8448	0.9	0.85	1000	-1000	1000	0.1	0.01	0	0	1;
	196	0.0	0.0	1.00	103.4236	51.7118	37.2325	0.9	0.85	1000	-1000	1000	0.1	0.01	0	0	1;
	1022	0.0	0.0	1.00	103.1220	51.5610	37.1239	0.9	0.85	1000	-1000	1000	0.1	0.01	0	0	1;
	507	0.0	0.0	1.00	101.6581	50.8290	36.5969	0.9	0.85	1000	-1000	1000	0.1	0.01	0	0	1;
	1056	0.0	0.0	1.00	101.1934	50.5967	36.4296	0.9	0.85	1000	-1000	1000	0.1	0.01	0	0	1;
	1369	0.0	0.0	1.00	100.8125	50.4063	36.2925	0.9	0.85	1000	-1000	1000	0.1	0.01	0	0	1;
	1182	0.0	0.0	1.00	99.1429	49.5714	35.6914	0.9	0.85	1000	-1000	1000	0.1	0.01	0	0	1;
	183	0.0	0.0	1.00	99.0780	49.5390	35.6681	0.9	0.85	1000	-1000	1000	0.1	0.01	0	0	1;
	922	0.0	0.0	1.00	98.5539	49.2769	35.4794	0.9	0.85	1000	-1000	1000	0.1	0.01	0	0	1;
	1266	0.0	0.0	1.00	96.3020	48.1510	34.6687	0.9	0.85	1000	-1000	1000	0.1	0.01	0	0	1;
	212	0.0	0.0	1.00	95.2433	47.6216	34.2876	0.9	0.85	1000	-1000	1000	0.1	0.01	0	0	1;
	470	0.0	0.0	1.00	94.2744	47.1372	33.9388	0.9	0.85	1000	-1000	1000	0.1	0.01	0	0	1;
	1478	0.0	0.0	1.00	93.4003	46.7001	33.6241	0.9	0.85	1000	-1000	1000	0.1	0.01	0	0	1;
	1033	0.0	0.0	1.00	93.3278	46.6639	33.5980	0.9	0.85	1000	-1000	1000	0.1	0.01	0	0	1;
	1048	0.0	0.0	1.00	92.3233	46.1616	33.2364	0.9	0.85	1000	-1000	1000	0.1	0.01	0	0	1;
	1274	0.0	0.0	1.00	91.4182	45.7091	32.9105	0.9	0.85	1000	-1000	1000	0.1	0.01	0	0	1;
	1304	0.0	0.0	1.00	89.2978	44.6489	32.1472	0.9	0.85	1000	-1000	1000	0.1	0.01	0	0	1;
	1098	0.0	0.0	1.00	88.0644	44.0322	31.7032	0.9	0.85	1000	-1000	1000	0.1	0.01	0	0	1;
	851	0.0	0.0	1.00	87.5767	43.7884	31.5276	0.9	0.85	1000	-1000	1000	0.1	0.01	0	0	1;
	850	0.0	0.0	1.00	86.7015	43.3508	31.2125	0.9	0.85	1000	-1000	1000	0.1	0.01	0	0	1;
	613	0.0	0.0	1.00	86.5944	43.2972	31.1740	0.9	0.85	1000	-1000	1000	0.1	0.01	0	0	1;
	446	0.0	0.0	1.00	86.1461	43.0730	31.0126	0.9	0.85	1000	-1000	1000	0.1	0.01	0	0	1;
	621	0.0	0.0	1.00	85.7253	42.8627	30.8611	0.9	0.85	1000	-1000	1000	0.1	0.01	0	0	1;
	1470	0.0	0.0	1.00	85.3309	42.6655	30.7191	0.9	0.85	1000	-1000	1000	0.1	0.01	0	0	1;
	1061	0.0	0.0	1.00	84.9508	42.4754	30.5823	0.9	0.85	1000	-1000	1000	0.1	0.01	0	0	1;
	298	0.0	0.0	1.00	84.7953	42.3977	30.5263	0.9	0.85	1000	-1000	1000	0.1	0.01	0	0	1;
	1467	0.0	0.0	1.00	84.6228	42.3114	30.4642	0.9	0.85	1000	-1000	1000	0.1	0.01	0	0	1;
	1845	0.0	0.0	1.00	84.4037	42.2019	30.3853	0.9	0.85	1000	-1000	1000	0.1	0.01	0	0	1;
	1319	0.0	0.0	1.00	84.1206	42.0603	30.2834	0.9	0.85	1000	-1000	1000	0.1	0.01	0	0	1;
	1025	0.0	0.0	1.00	81.0178	40.5089	29.1664	0.9	0.85	1000	-1000	1000	0.1	0.01	0	0	1;
	935	0.0	0.0	1.00	80.8510	40.4255	29.1063	0.9	0.85	1000	-1000	1000	0.1	0.01	0	0	1;
	388	0.0	0.0	1.00	80.8232	40.4116	29.0963	0.9	0.85	1000	-1000	1000	0.1	0.01	0	0	1;
	523	0.0	0.0	1.00	80.7759	40.3880	29.0793	0.9	0.85	1000	-1000	1000	0.1	0.01	0	0	1;
	1243	0.0	0.0	1.00	80.5654	40.2827	29.0035	0.9	0.85	1000	-1000	1000	0.1	0.01	0	0	1;
	542	0.0	0.0	1.00	79.8867	39.9434	28.7592	0.9	0.85	1000	-1000	1000	0.1	0.01	0	0	1;
	617	0.0	0.0	1.00	78.3170	39.1585	28.1941	0.9	0.85	1000	-1000	1000	0.1	0.01	0	0	1;
	121	0.0	0.0	1.00	78.2169	39.1085	28.1581	0.9	0.85	1000	-1000	1000	0.1	0.01	0	0	1;
	1079	0.0	0.0	1.00	76.9573	38.4786	27.7046	0.9	0.85	1000	-1000	1000	0.1	0.01	0	0	1;
	518	0.0	0.0	1.00	76.0260	38.0130	27.3694	0.9	0.85	1000	-1000	1000	0.1	0.01	0	0	1;
	254	0.0	0.0	1.00	75.4550	37.7275	27.1638	0.9	0.85	1000	-1000	1000	0.1	0.01	0	0	1;
	257	0.0	0.0	1.00	75.3182	37.6591	27.1146	0.9	0.85	1000	-1000	1000	0.1	0.01	0	0	1;
	2009	0.0	0.0	1.00	75.0165	37.5083	27.0060	0.9	0.85	1000	-1000	1000	0.1	0.01	0	0	1;
	928	0.0	0.0	1.00	74.9546	37.4773	26.9837	0.9	0.85	1000	-1000	1000	0.1	0.01	0	0	1;
	1371	0.0	0.0	1.00	74.5448	37.2724	26.8361	0.9	0.85	1000	-1000	1000	0.1	0.01	0	0	1;
	688	0.0	0.0	1.00	73.8073	36.9037	26.5706	0.9	0.85	1000	-1000	1000	0.1	0.01	0	0	1;
	1314	0.0	0.0	1.00	72.4816	36.2408	26.0934	0.9	0.85	1000	-1000	1000	0.1	0.01	0	0	1;
	1313	0.0	0.0	1.00	71.7891	35.8945	25.8441	0.9	0.85	1000	-1000	1000	0.1	0.01	0	0	1;
	242	0.0	0.0	1.00	71.7343	35.8671	25.8243	0.9	0.85	1000	-1000	1000	0.1	0.01	0	0	1;
	1041	0.0	0.0	1.00	71.6515	35.8257	25.7945	0.9	0.85	1000	-1000	1000	0.1	0.01	0	0	1;
	346	0.0	0.0	1.00	71.5863	35.7932	25.7711	0.9	0.85	1000	-1000	1000	0.1	0.01	0	0	1;
	122	0.0	0.0	1.00	70.6053	35.3027	25.4179	0.9	0.85	1000	-1000	1000	0.1	0.01	0	0	1;
	124	0.0	0.0	1.00	70.2199	35.1100	25.2792	0.9	0.85	1000	-1000	1000	0.1	0.01	0	0	1;
	1045	0.0	0.0	1.00	69.8628	34.9314	25.1506	0.9	0.85	1000	-1000	1000	0.1	0.01	0	0	1;
	1119	0.0	0.0	1.00	69.2311	34.6156	24.9232	0.9	0.85	1000	-1000	1000	0.1	0.01	0	0	1;
	300	0.0	0.0	1.00	68.8790	34.4395	24.7964	0.9	0.85	1000	-1000	1000	0.1	0.01	0	0	1;
	1380	0.0	0.0	1.00	68.6026	34.3013	24.6970	0.9	0.85	1000	-1000	1000	0.1	0.01	0	0	1;
	1071	0.0	0.0	1.00	68.4554	34.2277	24.6439	0.9	0.85	1000	-1000	1000	0.1	0.01	0	0	1;
	562	0.0	0.0	1.00	68.3307	34.1653	24.5991	0.9	0.85	1000	-1000	1000	0.1	0.01	0	0	1;
	524	0.0	0.0	1.00	68.3135	34.1567	24.5928	0.9	0.85	1000	-1000	1000	0.1	0.01	0	0	1;
	1035	0.0	0.0	1.00	67.9458	33.9729	24.4605	0.9	0.85	1000	-1000	1000	0.1	0.01	0	0	1;
	1259	0.0	0.0	1.00	67.8025	33.9012	24.4089	0.9	0.85	1000	-1000	1000	0.1	0.01	0	0	1;
	1212	0.0	0.0	1.00	67.4717	33.7358	24.2898	0.9	0.85	1000	-1000	1000	0.1	0.01	0	0	1;
	878	0.0	0.0	1.00	67.3636	33.6818	24.2509	0.9	0.85	1000	-1000	1000	0.1	0.01	0	0	1;
	689	0.0	0.0	1.00	66.6739	33.3370	24.0026	0.9	0.85	1000	-1000	1000	0.1	0.01	0	0	1;
	479	0.0	0.0	1.00	66.3653	33.1826	23.8915	0.9	0.85	1000	-1000	1000	0.1	0.01	0	0	1;
	281	0.0	0.0	1.00	65.9045	32.9523	23.7256	0.9	0.85	1000	-1000	1000	0.1	0.01	0	0	1;
	1260	0.0	0.0	1.00	65.1013	32.5506	23.4365	0.9	0.85	1000	-1000	1000	0.1	0.01	0	0	1;
	870	0.0	0.0	1.00	65.0023	32.5011	23.4008	0.9	0.85	1000	-1000	1000	0.1	0.01	0	0	1;
	1184	0.0	0.0	1.00	64.1859	32.0930	23.1069	0.9	0.85	1000	-1000	1000	0.1	0.01	0	0	1;
	331	0.0	0.0	1.00	63.8837	31.9419	22.9981	0.9	0.85	1000	-1000	1000	0.1	0.01	0	0	1;
	1608	0.0	0.0	1.00	63.3973	31.6986	22.8230	0.9	0.85	1000	-1000	1000	0.1	0.01	0	0	1;
	691	0.0	0.0	1.00	63.0715	31.5358	22.7057	0.9	0.85	1000	-1000	1000	0.1	0.01	0	0	1;
	547	0.0	0.0	1.00	62.9958	31.4979	22.6785	0.9	0.85	1000	-1000	1000	0.1	0.01	0	0	1;
	626	0.0	0.0	1.00	62.1588	31.0794	22.3772	0.9	0.85	1000	-1000	1000	0.1	0.01	0	0	1;
	690	0.0	0.0	1.00	62.1102	31.0551	22.3597	0.9	0.85	1000	-1000	1000	0.1	0.01	0	0	1;
	1309	0.0	0.0	1.00	62.0334	31.0167	22.3320	0.9	0.85	1000	-1000	1000	0.1	0.01	0	0	1;
	188	0.0	0.0	1.00	61.7772	30.8886	22.2398	0.9	0.85	1000	-1000	1000	0.1	0.01	0	0	1;
	497	0.0	0.0	1.00	61.5969	30.7985	22.1749	0.9	0.85	1000	-1000	1000	0.1	0.01	0	0	1;
];

%% branch data
%	fbus	tbus	r	x	b	rateA	rateB	rateC	ratio	angle	status	angmin	angmax
mpc.branch = [
	28	 292	 0.021394604867	 0.0494214698071	 0.0128010240958	 129.0	 129.0	 129.0	 0.0	 0.0	 1	 -30.0	 30.0;
	28	 350	 0.0202366658864	 0.050316143306	 0.105624716648	 135.0	 135.0	 135.0	 0.0	 0.0	 1	 -30.0	 30.0;
	52	 8	 0.0268534457937	 0.191657423545	 5.19511746848e-05	 43.0	 43.0	 43.0	 0.0	 0.0	 1	 -30.0	 30.0;
	53	 8	 0.0269840798896	 0.18570208698	 5.17387384688e-05	 42.0	 42.0	 42.0	 0.0	 0.0	 1	 -30.0	 30.0;
	59	 260	 0.0111227827829	 0.0297112037292	 0.00622045313017	 141.0	 141.0	 141.0	 0.0	 0.0	 1	 -30.0	 30.0;
	59	 267	 0.0457720959614	 0.120590632657	 0.0257924747265	 140.0	 140.0	 140.0	 0.0	 0.0	 1	 -30.0	 30.0;
	59	 304	 0.00677941394792	 0.01860772976	 0.00402505277148	 143.0	 143.0	 143.0	 0.0	 0.0	 1	 -30.0	 30.0;
	85	 87	 0.00113895501043	 0.0139358874875	 1.68331721934	 1342.0	 1342.0	 1342.0	 0.0	 0.0	 1	 -30.0	 30.0;
	85	 87	 0.00112250498219	 0.0137716883383	 1.69542150214	 1344.0	 1344.0	 1344.0	 0.0	 0.0	 1	 -30.0	 30.0;
	86	 126	 0.000640331621062	 0.00644689027518	 0.0800716374977	 787.0	 787.0	 787.0	 0.0	 0.0	 1	 -30.0	 30.0;
	86	 126	 0.000620334336383	 0.00614848183408	 0.0824073624051	 779.0	 779.0	 779.0	 0.0	 0.0	 1	 -30.0	 30.0;
	86	 142	 0.000859031650457	 0.00869119072488	 0.11279631523	 789.0	 789.0	 789.0	 0.0	 0.0	 1	 -30.0	 30.0;
	86	 143	 0.00311860254187	 0.0305234527894	 0.456269018371	 773.0	 773.0	 773.0	 0.0	 0.0	 1	 -30.0	 30.0;
	88	 115	 0.000639001402828	 0.00645486855557	 0.0940123306083	 788.0	 788.0	 788.0	 0.0	 0.0	 1	 -30.0	 30.0;
	88	 131	 0.00143587492768	 0.0146445790985	 0.184206889048	 793.0	 793.0	 793.0	 0.0	 0.0	 1	 -30.0	 30.0;
	88	 133	 0.00069808988584	 0.00684698190891	 0.093381478558	 774.0	 774.0	 774.0	 0.0	 0.0	 1	 -30.0	 30.0;
	12	 99	 0.00549684407743	 0.0400146771576	 0.527701176391	 646.0	 646.0	 646.0	 0.0	 0.0	 1	 -30.0	 30.0;
	12	 104	 0.00366285891487	 0.0465747794057	 0.730405217833	 907.0	 907.0	 907.0	 0.0	 0.0	 1	 -30.0	 30.0;
	12	 135	 0.00244048918809	 0.0292885130499	 0.471378581993	 875.0	 875.0	 875.0	 0.0	 0.0	 1	 -30.0	 30.0;
	12	 138	 0.00411569981153	 0.0332833799582	 0.405787904265	 689.0	 689.0	 689.0	 0.0	 0.0	 1	 -30.0	 30.0;
...